** sch_path: /home/gils/aic/sky130_its_biomedical_chip_research_2024/xschem/tspc_dff1.sch
.subckt tspc_dff1 vin rst preOut DVDD DVSS
*.PININFO vin:I rst:I preOut:O DVDD:I DVSS:I
*  x1 -  pcell_pfd  IS MISSING !!!!
*  x2 -  ncell_pfd  IS MISSING !!!!
.ends
.end
