*SPEF "ieee 1481-1999"
*DESIGN "freq_psc"
*DATE "06:32:14 Saturday October 26, 2024"
*VENDOR "The OpenROAD Project"
*PROGRAM "OpenROAD"
*VERSION "edf00dff99f6c40d67a30c0e22a8191c5d2ed9d6"
*DESIGN_FLOW "NAME_SCOPE LOCAL" "PIN_CAP NONE"
*DIVIDER /
*DELIMITER :
*BUS_DELIMITER []
*T_UNIT 1 NS
*C_UNIT 1 PF
*R_UNIT 1 OHM
*L_UNIT 1 HENRY

*NAME_MAP
*3 clk
*4 out
*5 psc[0]
*6 psc[1]
*7 psc[2]
*8 psc[3]
*9 psc[4]
*10 psc[5]
*11 psc[6]
*12 psc[7]
*13 rst
*14 _000_
*15 _001_
*16 _002_
*17 _003_
*18 _004_
*19 _005_
*20 _006_
*21 _007_
*22 _008_
*23 _009_
*24 _010_
*25 _011_
*26 _012_
*27 _013_
*28 _014_
*29 _015_
*30 _016_
*31 _017_
*32 _018_
*33 _019_
*34 _020_
*35 _021_
*36 _022_
*37 _023_
*38 _024_
*39 _025_
*40 _026_
*41 _027_
*42 _028_
*43 _029_
*44 _030_
*45 _031_
*46 _032_
*47 _033_
*48 _034_
*49 _035_
*50 _036_
*51 _037_
*52 _038_
*53 _039_
*54 _040_
*55 _041_
*56 _042_
*57 _043_
*58 _044_
*59 _045_
*60 _046_
*61 _047_
*62 _048_
*63 _049_
*64 _050_
*65 _051_
*66 _052_
*67 _053_
*68 _054_
*69 _055_
*70 clknet_0_clk
*71 clknet_1_0__leaf_clk
*72 clknet_1_1__leaf_clk
*73 net1
*74 net10
*75 net11
*76 net12
*77 net13
*78 net2
*79 net3
*80 net4
*81 net5
*82 net6
*83 net7
*84 net8
*85 net9
*86 psc_cnt\[0\]
*87 psc_cnt\[1\]
*88 psc_cnt\[2\]
*89 psc_cnt\[3\]
*90 psc_cnt\[4\]
*91 psc_cnt\[5\]
*92 psc_cnt\[6\]
*93 psc_cnt\[7\]
*94 FILLER_0_15
*95 FILLER_0_27
*96 FILLER_0_29
*97 FILLER_0_3
*98 FILLER_0_41
*99 FILLER_0_53
*100 FILLER_0_57
*101 FILLER_0_70
*102 FILLER_10_29
*103 FILLER_10_36
*104 FILLER_10_45
*105 FILLER_10_55
*106 FILLER_10_70
*107 FILLER_11_15
*108 FILLER_11_3
*109 FILLER_11_57
*110 FILLER_11_69
*111 FILLER_11_75
*112 FILLER_12_15
*113 FILLER_12_19
*114 FILLER_12_26
*115 FILLER_12_3
*116 FILLER_12_46
*117 FILLER_12_54
*118 FILLER_12_57
*119 FILLER_12_62
*120 FILLER_12_74
*121 FILLER_1_14
*122 FILLER_1_26
*123 FILLER_1_30
*124 FILLER_1_60
*125 FILLER_1_7
*126 FILLER_2_58
*127 FILLER_2_72
*128 FILLER_3_25
*129 FILLER_3_3
*130 FILLER_3_32
*131 FILLER_3_60
*132 FILLER_3_69
*133 FILLER_3_75
*134 FILLER_3_9
*135 FILLER_4_17
*136 FILLER_4_21
*137 FILLER_4_27
*138 FILLER_4_29
*139 FILLER_4_3
*140 FILLER_4_35
*141 FILLER_4_50
*142 FILLER_4_56
*143 FILLER_4_73
*144 FILLER_4_9
*145 FILLER_5_24
*146 FILLER_5_3
*147 FILLER_5_55
*148 FILLER_5_60
*149 FILLER_5_72
*150 FILLER_6_16
*151 FILLER_6_29
*152 FILLER_6_41
*153 FILLER_6_53
*154 FILLER_6_59
*155 FILLER_6_9
*156 FILLER_7_11
*157 FILLER_7_19
*158 FILLER_7_46
*159 FILLER_7_51
*160 FILLER_7_55
*161 FILLER_7_57
*162 FILLER_7_66
*163 FILLER_7_74
*164 FILLER_8_29
*165 FILLER_8_70
*166 FILLER_9_14
*167 FILLER_9_22
*168 FILLER_9_28
*169 FILLER_9_3
*170 FILLER_9_44
*171 FILLER_9_57
*172 FILLER_9_61
*173 PHY_EDGE_ROW_0_Left_13
*174 PHY_EDGE_ROW_0_Right_0
*175 PHY_EDGE_ROW_10_Left_23
*176 PHY_EDGE_ROW_10_Right_10
*177 PHY_EDGE_ROW_11_Left_24
*178 PHY_EDGE_ROW_11_Right_11
*179 PHY_EDGE_ROW_12_Left_25
*180 PHY_EDGE_ROW_12_Right_12
*181 PHY_EDGE_ROW_1_Left_14
*182 PHY_EDGE_ROW_1_Right_1
*183 PHY_EDGE_ROW_2_Left_15
*184 PHY_EDGE_ROW_2_Right_2
*185 PHY_EDGE_ROW_3_Left_16
*186 PHY_EDGE_ROW_3_Right_3
*187 PHY_EDGE_ROW_4_Left_17
*188 PHY_EDGE_ROW_4_Right_4
*189 PHY_EDGE_ROW_5_Left_18
*190 PHY_EDGE_ROW_5_Right_5
*191 PHY_EDGE_ROW_6_Left_19
*192 PHY_EDGE_ROW_6_Right_6
*193 PHY_EDGE_ROW_7_Left_20
*194 PHY_EDGE_ROW_7_Right_7
*195 PHY_EDGE_ROW_8_Left_21
*196 PHY_EDGE_ROW_8_Right_8
*197 PHY_EDGE_ROW_9_Left_22
*198 PHY_EDGE_ROW_9_Right_9
*199 TAP_TAPCELL_ROW_0_26
*200 TAP_TAPCELL_ROW_0_27
*201 TAP_TAPCELL_ROW_10_37
*202 TAP_TAPCELL_ROW_11_38
*203 TAP_TAPCELL_ROW_12_39
*204 TAP_TAPCELL_ROW_12_40
*205 TAP_TAPCELL_ROW_1_28
*206 TAP_TAPCELL_ROW_2_29
*207 TAP_TAPCELL_ROW_3_30
*208 TAP_TAPCELL_ROW_4_31
*209 TAP_TAPCELL_ROW_5_32
*210 TAP_TAPCELL_ROW_6_33
*211 TAP_TAPCELL_ROW_7_34
*212 TAP_TAPCELL_ROW_8_35
*213 TAP_TAPCELL_ROW_9_36
*214 _056_
*215 _057_
*216 _058_
*217 _059_
*218 _060_
*219 _061_
*220 _062_
*221 _063_
*222 _064_
*223 _065_
*224 _066_
*225 _067_
*226 _068_
*227 _069_
*228 _070_
*229 _071_
*230 _072_
*231 _073_
*232 _074_
*233 _075_
*234 _076_
*235 _077_
*236 _078_
*237 _079_
*238 _080_
*239 _081_
*240 _082_
*241 _083_
*242 _084_
*243 _085_
*244 _086_
*245 _087_
*246 _088_
*247 _089_
*248 _090_
*249 _091_
*250 _092_
*251 _093_
*252 _094_
*253 _095_
*254 _096_
*255 _097_
*256 _098_
*257 _099_
*258 _100_
*259 _101_
*260 _102_
*261 _103_
*262 _104_
*263 _105_
*264 _106_
*265 _107_
*266 _108_
*267 _109_
*268 _110_
*269 _111_
*270 _112_
*271 _113_
*272 _114_
*273 _115_
*274 _116_
*275 _117_
*276 _118_
*277 _119_
*278 _120_
*279 clkbuf_0_clk
*280 clkbuf_1_0__f_clk
*281 clkbuf_1_1__f_clk
*282 clkload0
*283 hold1
*284 hold2
*285 hold3
*286 input1
*287 input2
*288 input3
*289 input4
*290 input5
*291 input6
*292 input7
*293 input8
*294 input9
*295 output10

*PORTS
clk I
out O
psc[0] I
psc[1] I
psc[2] I
psc[3] I
psc[4] I
psc[5] I
psc[6] I
psc[7] I
rst I

*D_NET *3 0.00167097
*CONN
*P clk I
*I *279:A I *D sky130_fd_sc_hd__clkbuf_16
*CAP
1 clk 0.000754824
2 *279:A 0.000754824
3 *279:A *242:A_N 0
4 *279:A *249:A 5.80217e-05
5 *279:A *270:D 5.33882e-05
6 *279:A *284:A 2.87684e-05
7 *279:A *72:14 2.11419e-05
8 *279:A *86:23 0
*RES
1 clk *279:A 21.5451 
*END

*D_NET *4 0.000779428
*CONN
*P out O
*I *295:X O *D sky130_fd_sc_hd__buf_2
*CAP
1 out 0.000375258
2 *295:X 0.000375258
3 out *295:A 2.89114e-05
*RES
1 *295:X out 21.2274 
*END

*D_NET *5 0.00124568
*CONN
*P psc[0] I
*I *286:A I *D sky130_fd_sc_hd__clkbuf_1
*CAP
1 psc[0] 0.00055572
2 *286:A 0.00055572
3 *286:A *287:A 3.42509e-05
4 *286:A *78:8 9.99853e-05
*RES
1 psc[0] *286:A 25.1214 
*END

*D_NET *6 0.00217564
*CONN
*P psc[1] I
*I *287:A I *D sky130_fd_sc_hd__clkbuf_1
*CAP
1 psc[1] 0.000897027
2 *287:A 0.000897027
3 *287:A *220:A_N 0.000317634
4 *287:A *78:8 2.96996e-05
5 *286:A *287:A 3.42509e-05
*RES
1 psc[1] *287:A 29.4786 
*END

*D_NET *7 0.00096063
*CONN
*P psc[2] I
*I *288:A I *D sky130_fd_sc_hd__clkbuf_1
*CAP
1 psc[2] 0.000480315
2 *288:A 0.000480315
*RES
1 psc[2] *288:A 23.3536 
*END

*D_NET *8 0.000620676
*CONN
*P psc[3] I
*I *289:A I *D sky130_fd_sc_hd__clkbuf_1
*CAP
1 psc[3] 0.000272328
2 *289:A 0.000272328
3 *289:A *290:A 7.60209e-05
*RES
1 psc[3] *289:A 20.1758 
*END

*D_NET *9 0.000887738
*CONN
*P psc[4] I
*I *290:A I *D sky130_fd_sc_hd__clkbuf_1
*CAP
1 psc[4] 0.000340536
2 *290:A 0.000340536
3 *290:A *236:A 1.91894e-05
4 *290:A *240:B1 4.5539e-05
5 *290:A *291:A 6.59163e-05
6 *289:A *290:A 7.60209e-05
*RES
1 psc[4] *290:A 18.8588 
*END

*D_NET *10 0.000563355
*CONN
*P psc[5] I
*I *291:A I *D sky130_fd_sc_hd__clkbuf_1
*CAP
1 psc[5] 0.000227237
2 *291:A 0.000227237
3 *291:A *239:A2 4.29654e-05
4 *290:A *291:A 6.59163e-05
*RES
1 psc[5] *291:A 19.2651 
*END

*D_NET *11 0.000521981
*CONN
*P psc[6] I
*I *292:A I *D sky130_fd_sc_hd__clkbuf_1
*CAP
1 psc[6] 0.000198685
2 *292:A 0.000198685
3 *292:A *229:A_N 4.58096e-05
4 *292:A *232:B 1.21955e-05
5 *292:A *293:A 6.6605e-05
*RES
1 psc[6] *292:A 18.9615 
*END

*D_NET *12 0.00039101
*CONN
*P psc[7] I
*I *293:A I *D sky130_fd_sc_hd__clkbuf_1
*CAP
1 psc[7] 0.000162203
2 *293:A 0.000162203
3 *292:A *293:A 6.6605e-05
*RES
1 psc[7] *293:A 18.0508 
*END

*D_NET *13 0.000580821
*CONN
*P rst I
*I *284:A I *D sky130_fd_sc_hd__dlygate4sd3_1
*CAP
1 rst 0.000276026
2 *284:A 0.000276026
3 *279:A *284:A 2.87684e-05
*RES
1 rst *284:A 20.4803 
*END

*D_NET *14 0.000313687
*CONN
*I *270:D I *D sky130_fd_sc_hd__dfrtp_1
*I *242:X O *D sky130_fd_sc_hd__and2b_1
*CAP
1 *270:D 8.57708e-05
2 *242:X 8.57708e-05
3 *270:D *242:A_N 3.92757e-05
4 *270:D *85:41 3.18676e-05
5 *270:D *86:23 1.76135e-05
6 *279:A *270:D 5.33882e-05
*RES
1 *242:X *270:D 29.475 
*END

*D_NET *15 0.000308085
*CONN
*I *271:D I *D sky130_fd_sc_hd__dfrtp_1
*I *245:X O *D sky130_fd_sc_hd__and3_1
*CAP
1 *271:D 0.000142892
2 *245:X 0.000142892
3 *271:D *245:A 0
4 *271:D *245:B 2.22999e-05
*RES
1 *245:X *271:D 20.7964 
*END

*D_NET *16 0.00139222
*CONN
*I *272:D I *D sky130_fd_sc_hd__dfrtp_1
*I *248:X O *D sky130_fd_sc_hd__and3b_1
*CAP
1 *272:D 0.000258436
2 *248:X 0.000258436
3 *272:D *221:B 0.000146071
4 *272:D *222:A1 0.000168939
5 *272:D *245:A 8.76135e-05
6 *272:D *247:B 7.7159e-06
7 *272:D *248:B 0.00014576
8 *272:D *281:A 0.000197501
9 *272:D *39:24 2.59355e-05
10 *272:D *60:12 9.58126e-05
11 *272:D *86:29 0
*RES
1 *248:X *272:D 35.1536 
*END

*D_NET *17 0.000402763
*CONN
*I *273:D I *D sky130_fd_sc_hd__dfrtp_1
*I *251:X O *D sky130_fd_sc_hd__and3b_1
*CAP
1 *273:D 7.78389e-05
2 *251:X 7.78389e-05
3 *273:D *251:B 0.000142664
4 *273:D *273:CLK 5.65955e-05
5 *273:D *57:20 1.21258e-05
6 *273:D *62:19 3.56998e-05
*RES
1 *251:X *273:D 20.9214 
*END

*D_NET *18 0.000375117
*CONN
*I *274:D I *D sky130_fd_sc_hd__dfrtp_1
*I *254:X O *D sky130_fd_sc_hd__and3b_1
*CAP
1 *274:D 0.000172844
2 *254:X 0.000172844
3 *274:D *275:CLK 1.83136e-05
4 *274:D *71:51 1.11157e-05
*RES
1 *254:X *274:D 20.7964 
*END

*D_NET *19 0.000509636
*CONN
*I *275:D I *D sky130_fd_sc_hd__dfrtp_1
*I *257:X O *D sky130_fd_sc_hd__and3b_1
*CAP
1 *275:D 0.000169716
2 *257:X 0.000169716
3 *275:D *275:CLK 7.77652e-05
4 *275:D *57:38 9.24395e-05
*RES
1 *257:X *275:D 31.2071 
*END

*D_NET *20 0.00120021
*CONN
*I *276:D I *D sky130_fd_sc_hd__dfrtp_1
*I *260:X O *D sky130_fd_sc_hd__and3_1
*CAP
1 *276:D 0.000456784
2 *260:X 0.000456784
3 *276:D *276:CLK 2.74273e-05
4 *276:D *278:CLK 3.30237e-05
5 *276:D *280:A 0.000212223
6 *276:D *71:10 1.39726e-05
*RES
1 *260:X *276:D 33.9929 
*END

*D_NET *21 0.000930419
*CONN
*I *277:D I *D sky130_fd_sc_hd__dfrtp_1
*I *261:Y O *D sky130_fd_sc_hd__a21boi_1
*CAP
1 *277:D 0.000383732
2 *261:Y 0.000383732
3 *277:D *261:A1 8.9653e-05
4 *277:D *261:B1_N 6.42242e-05
5 *277:D *277:CLK 6.05161e-06
6 *277:D *277:RESET_B 3.02581e-06
*RES
1 *261:Y *277:D 34.7071 
*END

*D_NET *22 0.000487672
*CONN
*I *270:RESET_B I *D sky130_fd_sc_hd__dfrtp_1
*I *218:Y O *D sky130_fd_sc_hd__inv_2
*CAP
1 *270:RESET_B 0.000163381
2 *218:Y 0.000163381
3 *270:RESET_B *262:A 5.07157e-05
4 *270:RESET_B *294:A 0
5 *270:RESET_B *57:38 8.00806e-05
6 *270:RESET_B *85:37 3.01126e-05
*RES
1 *218:Y *270:RESET_B 22.0679 
*END

*D_NET *23 0.000169687
*CONN
*I *271:RESET_B I *D sky130_fd_sc_hd__dfrtp_1
*I *262:Y O *D sky130_fd_sc_hd__inv_2
*CAP
1 *271:RESET_B 8.48433e-05
2 *262:Y 8.48433e-05
3 *271:RESET_B *245:B 0
4 *271:RESET_B *87:14 0
*RES
1 *262:Y *271:RESET_B 19.6393 
*END

*D_NET *24 0.000262376
*CONN
*I *272:RESET_B I *D sky130_fd_sc_hd__dfrtp_1
*I *263:Y O *D sky130_fd_sc_hd__inv_2
*CAP
1 *272:RESET_B 0.000129121
2 *263:Y 0.000129121
3 *272:RESET_B *247:A 4.1331e-06
4 *272:RESET_B *39:24 0
5 *272:RESET_B *79:12 0
*RES
1 *263:Y *272:RESET_B 20.55 
*END

*D_NET *25 0.000286056
*CONN
*I *273:RESET_B I *D sky130_fd_sc_hd__dfrtp_1
*I *264:Y O *D sky130_fd_sc_hd__inv_2
*CAP
1 *273:RESET_B 9.15644e-05
2 *264:Y 9.15644e-05
3 *273:RESET_B *263:A 5.33882e-05
4 *273:RESET_B *60:31 3.19595e-05
5 *273:RESET_B *85:41 6.05161e-06
6 *273:RESET_B *89:12 1.15281e-05
*RES
1 *264:Y *273:RESET_B 20.175 
*END

*D_NET *26 0.000476074
*CONN
*I *274:RESET_B I *D sky130_fd_sc_hd__dfrtp_1
*I *265:Y O *D sky130_fd_sc_hd__inv_2
*CAP
1 *274:RESET_B 0.000137979
2 *265:Y 0.000137979
3 *274:RESET_B *261:B1_N 0
4 *274:RESET_B *85:49 0.00019481
5 *274:RESET_B *85:62 5.30637e-06
*RES
1 *265:Y *274:RESET_B 21.0857 
*END

*D_NET *27 0.000489274
*CONN
*I *275:RESET_B I *D sky130_fd_sc_hd__dfrtp_1
*I *266:Y O *D sky130_fd_sc_hd__inv_2
*CAP
1 *275:RESET_B 0.000241611
2 *266:Y 0.000241611
3 *275:RESET_B *269:A 0
4 *275:RESET_B *85:24 6.05161e-06
*RES
1 *266:Y *275:RESET_B 21.4071 
*END

*D_NET *28 0.000438899
*CONN
*I *276:RESET_B I *D sky130_fd_sc_hd__dfrtp_1
*I *267:Y O *D sky130_fd_sc_hd__inv_2
*CAP
1 *276:RESET_B 8.6149e-05
2 *267:Y 8.6149e-05
3 *276:RESET_B *92:8 0.000138106
4 *276:RESET_B *92:34 0.000128496
*RES
1 *267:Y *276:RESET_B 11.8268 
*END

*D_NET *29 0.000667741
*CONN
*I *277:RESET_B I *D sky130_fd_sc_hd__dfrtp_1
*I *268:Y O *D sky130_fd_sc_hd__inv_2
*CAP
1 *277:RESET_B 0.000202495
2 *268:Y 0.000202495
3 *277:RESET_B *214:A 3.34295e-05
4 *277:RESET_B *239:B1 0
5 *277:RESET_B *261:A1 2.72695e-05
6 *277:RESET_B *85:62 0.00017309
7 *277:RESET_B *93:6 2.59355e-05
8 *277:D *277:RESET_B 3.02581e-06
*RES
1 *268:Y *277:RESET_B 22.2554 
*END

*D_NET *30 0.000176867
*CONN
*I *278:RESET_B I *D sky130_fd_sc_hd__dfrtp_1
*I *269:Y O *D sky130_fd_sc_hd__inv_2
*CAP
1 *278:RESET_B 6.05863e-05
2 *269:Y 6.05863e-05
3 *278:RESET_B *269:A 5.56943e-05
4 *278:RESET_B *295:A 0
*RES
1 *269:Y *278:RESET_B 19.6393 
*END

*D_NET *31 0.000206275
*CONN
*I *278:D I *D sky130_fd_sc_hd__dfrtp_1
*I *241:Y O *D sky130_fd_sc_hd__xnor2_1
*CAP
1 *278:D 6.82389e-05
2 *241:Y 6.82389e-05
3 *278:D *260:A 6.97972e-05
4 *278:D *269:A 0
*RES
1 *241:Y *278:D 29.2429 
*END

*D_NET *32 0.00100994
*CONN
*I *261:A1 I *D sky130_fd_sc_hd__a21boi_1
*I *214:Y O *D sky130_fd_sc_hd__inv_2
*CAP
1 *261:A1 0.000409896
2 *214:Y 0.000409896
3 *261:A1 *261:B1_N 0
4 *261:A1 *85:62 0
5 *261:A1 *93:6 7.32272e-05
6 *277:D *261:A1 8.9653e-05
7 *277:RESET_B *261:A1 2.72695e-05
*RES
1 *214:Y *261:A1 32.9571 
*END

*D_NET *33 0.00253714
*CONN
*I *236:B I *D sky130_fd_sc_hd__nand2_1
*I *234:B2 I *D sky130_fd_sc_hd__o2bb2a_1
*I *235:A2_N I *D sky130_fd_sc_hd__a2bb2o_1
*I *215:Y O *D sky130_fd_sc_hd__inv_2
*CAP
1 *236:B 0.000224953
2 *234:B2 3.88965e-05
3 *235:A2_N 5.54042e-05
4 *215:Y 0.000114761
5 *33:14 0.00035194
6 *33:8 0.000597354
7 *234:B2 *236:A 2.59355e-05
8 *235:A2_N *235:A1_N 0.000128146
9 *235:A2_N *235:B2 6.5185e-05
10 *235:A2_N *239:B1 0
11 *235:A2_N *285:A 0
12 *235:A2_N *50:10 1.41029e-05
13 *236:B *236:A 0.000232255
14 *236:B *237:C1 8.00806e-05
15 *236:B *239:A3 4.22908e-05
16 *236:B *239:B1 4.8936e-05
17 *236:B *240:A2 0
18 *236:B *53:12 0.000164005
19 *33:8 *90:54 0.000138723
20 *33:14 *235:B2 0
21 *33:14 *236:A 0.000126099
22 *33:14 *239:B1 5.66551e-05
23 *33:14 *90:54 3.14193e-05
*RES
1 *215:Y *33:8 15.9786 
2 *33:8 *33:14 8.42857 
3 *33:14 *235:A2_N 20.2464 
4 *33:14 *234:B2 9.83571 
5 *33:8 *236:B 28.925 
*END

*D_NET *34 0.00158029
*CONN
*I *237:A2 I *D sky130_fd_sc_hd__o2111a_1
*I *234:A2_N I *D sky130_fd_sc_hd__o2bb2a_1
*I *235:B2 I *D sky130_fd_sc_hd__a2bb2o_1
*I *216:Y O *D sky130_fd_sc_hd__inv_2
*CAP
1 *237:A2 0
2 *234:A2_N 4.26111e-05
3 *235:B2 0.000163298
4 *216:Y 0.000224822
5 *34:12 0.00029399
6 *34:10 0.000312903
7 *234:A2_N *237:A1 2.89016e-05
8 *234:A2_N *90:54 6.63909e-06
9 *235:B2 *235:A1_N 1.69115e-05
10 *235:B2 *236:A 4.25523e-05
11 *235:B2 *237:A1 5.66157e-05
12 *235:B2 *239:B1 0
13 *34:10 *216:A 2.27416e-05
14 *34:10 *236:A 3.57844e-05
15 *34:10 *240:B1 3.92757e-05
16 *34:12 *236:A 9.65171e-05
17 *34:12 *237:A1 0.000125731
18 *34:12 *240:B1 5.80706e-06
19 *235:A2_N *235:B2 6.5185e-05
20 *33:14 *235:B2 0
*RES
1 *216:Y *34:10 17.0143 
2 *34:10 *34:12 2.55357 
3 *34:12 *235:B2 17.4964 
4 *34:12 *234:A2_N 14.3357 
5 *34:10 *237:A2 13.8 
*END

*D_NET *35 0.00204279
*CONN
*I *226:A2 I *D sky130_fd_sc_hd__a21oi_1
*I *247:A I *D sky130_fd_sc_hd__nand2_1
*I *217:Y O *D sky130_fd_sc_hd__inv_2
*CAP
1 *226:A2 0.000415224
2 *247:A 0.000209876
3 *217:Y 0
4 *35:4 0.0006251
5 *226:A2 *226:A1 0.000142856
6 *226:A2 *226:B1 0
7 *226:A2 *228:B1 5.62995e-05
8 *226:A2 *39:24 0.00011323
9 *226:A2 *40:10 0.000132171
10 *226:A2 *79:12 5.80706e-06
11 *226:A2 *88:12 1.21289e-05
12 *247:A *246:A 0.000156968
13 *247:A *263:A 5.52302e-05
14 *247:A *39:24 5.66157e-05
15 *247:A *88:12 5.71472e-05
16 *272:RESET_B *247:A 4.1331e-06
*RES
1 *217:Y *35:4 9.3 
2 *35:4 *247:A 23.2821 
3 *35:4 *226:A2 25.425 
*END

*D_NET *36 0.000819567
*CONN
*I *222:B1 I *D sky130_fd_sc_hd__a21o_1
*I *219:X O *D sky130_fd_sc_hd__and2b_1
*CAP
1 *222:B1 0.00030602
2 *219:X 0.00030602
3 *222:B1 *220:A_N 2.32517e-05
4 *222:B1 *221:B 3.14963e-05
5 *222:B1 *39:24 5.01117e-05
6 *222:B1 *87:22 2.00751e-05
7 *222:B1 *87:37 8.25925e-05
*RES
1 *219:X *222:B1 33.3321 
*END

*D_NET *37 0.0018442
*CONN
*I *222:A1 I *D sky130_fd_sc_hd__a21o_1
*I *220:Y O *D sky130_fd_sc_hd__nand2b_1
*CAP
1 *222:A1 0.000394139
2 *220:Y 0.000394139
3 *222:A1 *219:A_N 0.000143652
4 *222:A1 *221:B 0.000354436
5 *222:A1 *222:A2 5.21202e-05
6 *222:A1 *245:A 1.24368e-05
7 *222:A1 *246:B 2.2351e-05
8 *222:A1 *246:C 4.13704e-05
9 *222:A1 *281:A 0.000218726
10 *222:A1 *78:8 4.18895e-05
11 *272:D *222:A1 0.000168939
*RES
1 *220:Y *222:A1 37.2964 
*END

*D_NET *38 0.000405979
*CONN
*I *222:A2 I *D sky130_fd_sc_hd__a21o_1
*I *221:Y O *D sky130_fd_sc_hd__nand2b_1
*CAP
1 *222:A2 8.57762e-05
2 *221:Y 8.57762e-05
3 *222:A2 *246:C 0.000103793
4 *222:A2 *60:12 7.85137e-05
5 *222:A1 *222:A2 5.21202e-05
*RES
1 *221:Y *222:A2 29.8054 
*END

*D_NET *39 0.00298317
*CONN
*I *228:A1 I *D sky130_fd_sc_hd__a41o_1
*I *222:X O *D sky130_fd_sc_hd__a21o_1
*CAP
1 *228:A1 0
2 *222:X 0.0010752
3 *39:24 0.0010752
4 *39:24 *228:B1 5.71472e-05
5 *39:24 *240:A1 7.77652e-05
6 *39:24 *246:A 0
7 *39:24 *272:CLK 0.000141186
8 *39:24 *281:A 1.97441e-05
9 *39:24 *87:22 3.34295e-05
10 *39:24 *87:37 7.83659e-05
11 *39:24 *88:12 0.000179233
12 *222:B1 *39:24 5.01117e-05
13 *226:A2 *39:24 0.00011323
14 *247:A *39:24 5.66157e-05
15 *272:D *39:24 2.59355e-05
16 *272:RESET_B *39:24 0
*RES
1 *222:X *39:24 43.8179 
2 *39:24 *228:A1 9.3 
*END

*D_NET *40 0.000860517
*CONN
*I *227:A1 I *D sky130_fd_sc_hd__a21oi_1
*I *228:A2 I *D sky130_fd_sc_hd__a41o_1
*I *223:Y O *D sky130_fd_sc_hd__nand2b_1
*CAP
1 *227:A1 0.000126127
2 *228:A2 2.75411e-05
3 *223:Y 0.000163318
4 *40:10 0.000316986
5 *227:A1 *227:A2 5.52302e-05
6 *227:A1 *228:A4 2.44318e-05
7 *228:A2 *240:A1 4.46186e-06
8 *228:A2 *41:12 1.02504e-05
9 *228:A2 *42:10 0
10 *40:10 *226:B1 0
11 *40:10 *228:A4 0
12 *40:10 *42:10 0
13 *40:10 *88:12 0
14 *226:A2 *40:10 0.000132171
*RES
1 *223:Y *40:10 16.7375 
2 *40:10 *228:A2 14.3804 
3 *40:10 *227:A1 15.9696 
*END

*D_NET *41 0.000630372
*CONN
*I *227:A2 I *D sky130_fd_sc_hd__a21oi_1
*I *228:A3 I *D sky130_fd_sc_hd__a41o_1
*I *224:Y O *D sky130_fd_sc_hd__nand2b_1
*CAP
1 *227:A2 7.20404e-05
2 *228:A3 0
3 *224:Y 0.000126332
4 *41:12 0.000198372
5 *227:A2 *228:A4 5.71472e-05
6 *227:A2 *228:B1 2.44318e-05
7 *41:12 *224:B 7.43578e-06
8 *41:12 *240:A1 2.28335e-05
9 *41:12 *42:10 0
10 *41:12 *89:49 5.62995e-05
11 *227:A1 *227:A2 5.52302e-05
12 *228:A2 *41:12 1.02504e-05
*RES
1 *224:Y *41:12 20.2821 
2 *41:12 *228:A3 9.3 
3 *41:12 *227:A2 10.9786 
*END

*D_NET *42 0.000863749
*CONN
*I *226:B1 I *D sky130_fd_sc_hd__a21oi_1
*I *227:B1 I *D sky130_fd_sc_hd__a21oi_1
*I *225:X O *D sky130_fd_sc_hd__and2b_1
*CAP
1 *226:B1 0.000174385
2 *227:B1 0
3 *225:X 0.000166474
4 *42:10 0.000340859
5 *226:B1 *228:A4 0.000125731
6 *42:10 *224:A_N 5.62995e-05
7 *226:A2 *226:B1 0
8 *228:A2 *42:10 0
9 *40:10 *226:B1 0
10 *40:10 *42:10 0
11 *41:12 *42:10 0
*RES
1 *225:X *42:10 16.3893 
2 *42:10 *227:B1 13.8 
3 *42:10 *226:B1 17.1929 
*END

*D_NET *43 0.000549725
*CONN
*I *228:A4 I *D sky130_fd_sc_hd__a41o_1
*I *226:Y O *D sky130_fd_sc_hd__a21oi_1
*CAP
1 *228:A4 9.97824e-05
2 *226:Y 9.97824e-05
3 *228:A4 *228:B1 0.00014285
4 *226:B1 *228:A4 0.000125731
5 *227:A1 *228:A4 2.44318e-05
6 *227:A2 *228:A4 5.71472e-05
7 *40:10 *228:A4 0
*RES
1 *226:Y *228:A4 30.6 
*END

*D_NET *44 0.000710419
*CONN
*I *228:B1 I *D sky130_fd_sc_hd__a41o_1
*I *227:Y O *D sky130_fd_sc_hd__a21oi_1
*CAP
1 *228:B1 0.000214845
2 *227:Y 0.000214845
3 *226:A2 *228:B1 5.62995e-05
4 *227:A2 *228:B1 2.44318e-05
5 *228:A4 *228:B1 0.00014285
6 *39:24 *228:B1 5.71472e-05
*RES
1 *227:Y *228:B1 22.975 
*END

*D_NET *45 0.000821
*CONN
*I *240:A1 I *D sky130_fd_sc_hd__a21oi_4
*I *228:X O *D sky130_fd_sc_hd__a41o_1
*CAP
1 *240:A1 0.000352845
2 *228:X 0.000352845
3 *240:A1 *240:A2 1.02504e-05
4 *240:A1 *240:B1 0
5 *240:A1 *89:49 0
6 *228:A2 *240:A1 4.46186e-06
7 *39:24 *240:A1 7.77652e-05
8 *41:12 *240:A1 2.28335e-05
*RES
1 *228:X *240:A1 33.3321 
*END

*D_NET *46 0.000708791
*CONN
*I *233:A I *D sky130_fd_sc_hd__and4_1
*I *238:A1 I *D sky130_fd_sc_hd__a21boi_1
*I *229:Y O *D sky130_fd_sc_hd__nand2b_1
*CAP
1 *233:A 0
2 *238:A1 6.17001e-05
3 *229:Y 0.000147963
4 *46:12 0.000209663
5 *238:A1 *238:A2 5.33005e-05
6 *238:A1 *238:B1_N 1.98839e-05
7 *46:12 *229:B 7.37347e-05
8 *46:12 *231:B 0.00010326
9 *46:12 *48:14 3.92854e-05
*RES
1 *229:Y *46:12 20.9964 
2 *46:12 *238:A1 10.2464 
3 *46:12 *233:A 9.3 
*END

*D_NET *47 0.000708244
*CONN
*I *233:B I *D sky130_fd_sc_hd__and4_1
*I *238:A2 I *D sky130_fd_sc_hd__a21boi_1
*I *230:Y O *D sky130_fd_sc_hd__nand2b_1
*CAP
1 *233:B 0
2 *238:A2 4.91986e-05
3 *230:Y 0.000178645
4 *47:12 0.000227843
5 *238:A2 *238:B1_N 0.000140933
6 *238:A2 *48:14 6.05161e-06
7 *47:12 *230:A_N 3.57163e-05
8 *47:12 *231:B 1.65558e-05
9 *47:12 *50:10 0
10 *238:A1 *238:A2 5.33005e-05
*RES
1 *230:Y *47:12 20.7821 
2 *47:12 *238:A2 10.6571 
3 *47:12 *233:B 9.3 
*END

*D_NET *48 0.00106777
*CONN
*I *238:B1_N I *D sky130_fd_sc_hd__a21boi_1
*I *233:C I *D sky130_fd_sc_hd__and4_1
*I *231:Y O *D sky130_fd_sc_hd__nand2b_1
*CAP
1 *238:B1_N 0.000181295
2 *233:C 0
3 *231:Y 0.000127576
4 *48:14 0.000308871
5 *238:B1_N *84:8 0.000183726
6 *48:14 *231:B 1.00375e-05
7 *48:14 *233:D 5.01117e-05
8 *238:A1 *238:B1_N 1.98839e-05
9 *238:A2 *238:B1_N 0.000140933
10 *238:A2 *48:14 6.05161e-06
11 *46:12 *48:14 3.92854e-05
*RES
1 *231:Y *48:14 20.9071 
2 *48:14 *233:C 9.3 
3 *48:14 *238:B1_N 13.55 
*END

*D_NET *49 0.00047123
*CONN
*I *233:D I *D sky130_fd_sc_hd__and4_1
*I *232:Y O *D sky130_fd_sc_hd__nand2b_1
*CAP
1 *233:D 0.000210559
2 *232:Y 0.000210559
3 *233:D *229:A_N 0
4 *233:D *231:B 0
5 *233:D *232:A_N 0
6 *233:D *232:B 0
7 *48:14 *233:D 5.01117e-05
*RES
1 *232:Y *233:D 31.3679 
*END

*D_NET *50 0.00188583
*CONN
*I *239:A1 I *D sky130_fd_sc_hd__a31o_1
*I *237:B1 I *D sky130_fd_sc_hd__o2111a_1
*I *233:X O *D sky130_fd_sc_hd__and4_1
*CAP
1 *239:A1 7.84028e-05
2 *237:B1 0.000150896
3 *233:X 0.000358066
4 *50:10 0.000587365
5 *237:B1 *239:A3 0.000139019
6 *239:A1 *239:A3 6.05161e-06
7 *239:A1 *239:B1 2.77258e-05
8 *50:10 *230:A_N 0
9 *50:10 *235:A1_N 0.000175512
10 *50:10 *237:A1 5.35516e-05
11 *50:10 *239:A2 0.000295137
12 *50:10 *285:A 0
13 *235:A2_N *50:10 1.41029e-05
14 *47:12 *50:10 0
*RES
1 *233:X *50:10 26.925 
2 *50:10 *237:B1 11.8893 
3 *50:10 *239:A1 10.675 
*END

*D_NET *51 0.0002095
*CONN
*I *237:C1 I *D sky130_fd_sc_hd__o2111a_1
*I *234:X O *D sky130_fd_sc_hd__o2bb2a_1
*CAP
1 *237:C1 2.46695e-05
2 *234:X 2.46695e-05
3 *237:C1 *236:A 8.00806e-05
4 *236:B *237:C1 8.00806e-05
*RES
1 *234:X *237:C1 28.6357 
*END

*D_NET *52 0.000664665
*CONN
*I *239:A2 I *D sky130_fd_sc_hd__a31o_1
*I *235:X O *D sky130_fd_sc_hd__a2bb2o_1
*CAP
1 *239:A2 0.000163281
2 *235:X 0.000163281
3 *239:A2 *237:A1 0
4 *291:A *239:A2 4.29654e-05
5 *50:10 *239:A2 0.000295137
*RES
1 *235:X *239:A2 31.6714 
*END

*D_NET *53 0.00124474
*CONN
*I *239:A3 I *D sky130_fd_sc_hd__a31o_1
*I *237:D1 I *D sky130_fd_sc_hd__o2111a_1
*I *236:Y O *D sky130_fd_sc_hd__nand2_1
*CAP
1 *239:A3 0.00011401
2 *237:D1 0
3 *236:Y 0.000126327
4 *53:12 0.000240337
5 *239:A3 *239:B1 0.000353079
6 *53:12 *239:B1 3.17067e-05
7 *53:12 *240:A2 2.79092e-05
8 *53:12 *261:B1_N 0
9 *236:B *239:A3 4.22908e-05
10 *236:B *53:12 0.000164005
11 *237:B1 *239:A3 0.000139019
12 *239:A1 *239:A3 6.05161e-06
*RES
1 *236:Y *53:12 20.7821 
2 *53:12 *237:D1 9.3 
3 *53:12 *239:A3 13.1393 
*END

*D_NET *54 0.000498025
*CONN
*I *240:A2 I *D sky130_fd_sc_hd__a21oi_4
*I *237:X O *D sky130_fd_sc_hd__o2111a_1
*CAP
1 *240:A2 0.000229933
2 *237:X 0.000229933
3 *240:A2 *240:B1 0
4 *240:A2 *261:B1_N 0
5 *240:A2 *89:12 0
6 *240:A2 *89:49 0
7 *236:B *240:A2 0
8 *240:A1 *240:A2 1.02504e-05
9 *53:12 *240:A2 2.79092e-05
*RES
1 *237:X *240:A2 31.6714 
*END

*D_NET *55 0.00225261
*CONN
*I *239:B1 I *D sky130_fd_sc_hd__a31o_1
*I *238:Y O *D sky130_fd_sc_hd__a21boi_1
*CAP
1 *239:B1 0.000782461
2 *238:Y 0.000782461
3 *239:B1 *214:A 0
4 *239:B1 *231:A_N 6.74911e-05
5 *239:B1 *236:A 0
6 *239:B1 *261:B1_N 0
7 *239:B1 *285:A 0.00010209
8 *239:B1 *85:62 0
9 *235:A2_N *239:B1 0
10 *235:B2 *239:B1 0
11 *236:B *239:B1 4.8936e-05
12 *239:A1 *239:B1 2.77258e-05
13 *239:A3 *239:B1 0.000353079
14 *277:RESET_B *239:B1 0
15 *33:14 *239:B1 5.66551e-05
16 *53:12 *239:B1 3.17067e-05
*RES
1 *238:Y *239:B1 43.0286 
*END

*D_NET *56 0.000515947
*CONN
*I *240:B1 I *D sky130_fd_sc_hd__a21oi_4
*I *239:X O *D sky130_fd_sc_hd__a31o_1
*CAP
1 *240:B1 0.000212662
2 *239:X 0.000212662
3 *240:B1 *236:A 0
4 *240:A1 *240:B1 0
5 *240:A2 *240:B1 0
6 *290:A *240:B1 4.5539e-05
7 *34:10 *240:B1 3.92757e-05
8 *34:12 *240:B1 5.80706e-06
*RES
1 *239:X *240:B1 31.6714 
*END

*D_NET *57 0.0123188
*CONN
*I *261:B1_N I *D sky130_fd_sc_hd__a21boi_1
*I *248:C I *D sky130_fd_sc_hd__and3b_1
*I *245:A I *D sky130_fd_sc_hd__and3_1
*I *251:C I *D sky130_fd_sc_hd__and3b_1
*I *254:C I *D sky130_fd_sc_hd__and3b_1
*I *242:B I *D sky130_fd_sc_hd__and2b_1
*I *241:B I *D sky130_fd_sc_hd__xnor2_1
*I *260:A I *D sky130_fd_sc_hd__and3_1
*I *257:C I *D sky130_fd_sc_hd__and3b_1
*I *240:Y O *D sky130_fd_sc_hd__a21oi_4
*CAP
1 *261:B1_N 0.000697274
2 *248:C 7.6685e-05
3 *245:A 0.000624038
4 *251:C 0
5 *254:C 0.000185116
6 *242:B 2.23854e-05
7 *241:B 0
8 *260:A 0.00018156
9 *257:C 0
10 *240:Y 0.000484321
11 *57:96 0.000795109
12 *57:49 0.000518369
13 *57:38 0.000785898
14 *57:30 0.000871063
15 *57:28 0.000813792
16 *57:20 0.000509157
17 *57:14 0.000741603
18 *57:10 0.00154874
19 *245:A *221:B 0.000123352
20 *245:A *246:B 1.77088e-05
21 *245:A *246:C 6.15672e-05
22 *245:A *247:B 1.74502e-05
23 *245:A *248:B 5.52238e-05
24 *245:A *60:12 4.13496e-05
25 *245:A *87:22 0
26 *248:C *247:B 9.41642e-05
27 *248:C *248:B 6.84805e-05
28 *248:C *60:12 9.41642e-05
29 *254:C *250:A 0
30 *254:C *250:B 0.000151333
31 *254:C *254:A_N 3.1367e-05
32 *254:C *64:16 5.41797e-05
33 *254:C *66:10 3.92757e-05
34 *260:A *259:B 0
35 *260:A *269:A 0
36 *260:A *278:CLK 3.18676e-05
37 *261:B1_N *263:A 0
38 *261:B1_N *85:49 0
39 *261:B1_N *85:62 0.00036496
40 *261:B1_N *89:12 9.57064e-05
41 *261:B1_N *89:49 4.00025e-05
42 *261:B1_N *90:12 0
43 *57:20 *251:B 7.98318e-05
44 *57:20 *60:31 0
45 *57:20 *62:19 0.000224341
46 *57:28 *249:B 9.97164e-05
47 *57:28 *250:B 9.97164e-05
48 *57:28 *281:A 0
49 *57:28 *89:16 0.000135028
50 *57:30 *85:41 0.0001202
51 *57:30 *89:16 0.000316184
52 *57:38 *242:A_N 1.15172e-05
53 *57:38 *269:A 0.000221381
54 *57:38 *294:A 0
55 *57:38 *85:37 7.15591e-05
56 *57:38 *85:41 5.41609e-05
57 *57:49 *257:A_N 8.90199e-05
58 *57:49 *257:B 4.4787e-05
59 *57:49 *259:B 0
60 *57:49 *269:A 0
61 *57:49 *66:12 0
62 *57:96 *248:B 3.12359e-05
63 *57:96 *251:B 4.6355e-05
64 *57:96 *281:A 1.77672e-05
65 *222:A1 *245:A 1.24368e-05
66 *239:B1 *261:B1_N 0
67 *240:A2 *261:B1_N 0
68 *261:A1 *261:B1_N 0
69 *270:RESET_B *57:38 8.00806e-05
70 *271:D *245:A 0
71 *272:D *245:A 8.76135e-05
72 *273:D *57:20 1.21258e-05
73 *274:RESET_B *261:B1_N 0
74 *275:D *57:38 9.24395e-05
75 *277:D *261:B1_N 6.42242e-05
76 *278:D *260:A 6.97972e-05
77 *53:12 *261:B1_N 0
*RES
1 *240:Y *57:10 16.3357 
2 *57:10 *57:14 9.96429 
3 *57:14 *57:20 8.53571 
4 *57:20 *57:28 12.9107 
5 *57:28 *57:30 5.875 
6 *57:30 *57:38 18.2857 
7 *57:38 *257:C 9.3 
8 *57:38 *57:49 10.5714 
9 *57:49 *260:A 17.7286 
10 *57:49 *241:B 13.8 
11 *57:30 *242:B 9.72857 
12 *57:28 *254:C 22.3 
13 *57:20 *251:C 9.3 
14 *57:14 *57:96 1.94643 
15 *57:96 *245:A 32.3357 
16 *57:96 *248:C 15.7821 
17 *57:10 *261:B1_N 32.9964 
*END

*D_NET *58 0.000741656
*CONN
*I *245:B I *D sky130_fd_sc_hd__and3_1
*I *243:X O *D sky130_fd_sc_hd__or2_1
*CAP
1 *245:B 0.000245908
2 *243:X 0.000245908
3 *245:B *245:C 1.46768e-06
4 *245:B *72:10 7.29667e-05
5 *245:B *72:14 0.000127446
6 *245:B *87:14 2.56601e-05
7 *271:D *245:B 2.22999e-05
8 *271:RESET_B *245:B 0
*RES
1 *243:X *245:B 31.9214 
*END

*D_NET *59 0.00241796
*CONN
*I *247:B I *D sky130_fd_sc_hd__nand2_1
*I *245:C I *D sky130_fd_sc_hd__and3_1
*I *244:Y O *D sky130_fd_sc_hd__nand2_1
*CAP
1 *247:B 0.000657927
2 *245:C 0.00019098
3 *244:Y 0
4 *59:4 0.000848906
5 *245:C *72:14 3.79467e-05
6 *245:C *86:27 2.44318e-05
7 *245:C *87:18 0.000186662
8 *245:C *87:22 0
9 *247:B *221:A_N 5.68713e-05
10 *247:B *221:B 2.57619e-05
11 *247:B *246:A 5.65955e-05
12 *247:B *246:C 4.98414e-05
13 *247:B *60:12 9.21764e-05
14 *247:B *60:31 5.20669e-05
15 *247:B *86:27 1.69961e-05
16 *245:A *247:B 1.74502e-05
17 *245:B *245:C 1.46768e-06
18 *248:C *247:B 9.41642e-05
19 *272:D *247:B 7.7159e-06
*RES
1 *244:Y *59:4 9.3 
2 *59:4 *245:C 22.0143 
3 *59:4 *247:B 28.3893 
*END

*D_NET *60 0.00448023
*CONN
*I *252:C I *D sky130_fd_sc_hd__and3_1
*I *249:B I *D sky130_fd_sc_hd__and2_1
*I *250:B I *D sky130_fd_sc_hd__or2_1
*I *248:A_N I *D sky130_fd_sc_hd__and3b_1
*I *246:X O *D sky130_fd_sc_hd__and3_1
*CAP
1 *252:C 0
2 *249:B 0.000325368
3 *250:B 0.000192751
4 *248:A_N 0
5 *246:X 0.000165334
6 *60:35 0.00073998
7 *60:31 0.000618433
8 *60:12 0.000561906
9 *249:B *249:A 0
10 *249:B *251:A_N 0
11 *249:B *273:CLK 3.48705e-05
12 *249:B *62:6 0.000144773
13 *249:B *62:19 0.000129093
14 *250:B *249:A 0
15 *250:B *250:A 5.49544e-05
16 *250:B *64:16 3.27526e-05
17 *60:12 *246:C 2.30245e-05
18 *60:12 *281:A 0.000121254
19 *60:31 *252:A 2.01732e-05
20 *60:31 *85:41 5.09359e-05
21 *60:35 *85:41 0.00042782
22 *222:A2 *60:12 7.85137e-05
23 *245:A *60:12 4.13496e-05
24 *247:B *60:12 9.21764e-05
25 *247:B *60:31 5.20669e-05
26 *248:C *60:12 9.41642e-05
27 *254:C *250:B 0.000151333
28 *272:D *60:12 9.58126e-05
29 *273:RESET_B *60:31 3.19595e-05
30 *57:20 *60:31 0
31 *57:28 *249:B 9.97164e-05
32 *57:28 *250:B 9.97164e-05
*RES
1 *246:X *60:12 22.5321 
2 *60:12 *248:A_N 9.3 
3 *60:12 *60:31 16.1964 
4 *60:31 *60:35 8.66071 
5 *60:35 *250:B 18.1571 
6 *60:35 *249:B 19.2821 
7 *60:31 *252:C 9.3 
*END

*D_NET *61 0.000931387
*CONN
*I *248:B I *D sky130_fd_sc_hd__and3b_1
*I *247:Y O *D sky130_fd_sc_hd__nand2_1
*CAP
1 *248:B 0.000250468
2 *247:Y 0.000250468
3 *248:B *221:B 8.97632e-06
4 *248:B *246:A 9.91033e-05
5 *248:B *281:A 2.16719e-05
6 *245:A *248:B 5.52238e-05
7 *248:C *248:B 6.84805e-05
8 *272:D *248:B 0.00014576
9 *57:96 *248:B 3.12359e-05
*RES
1 *247:Y *248:B 32.0464 
*END

*D_NET *62 0.00345628
*CONN
*I *253:B I *D sky130_fd_sc_hd__or2_1
*I *255:C I *D sky130_fd_sc_hd__and3_1
*I *251:A_N I *D sky130_fd_sc_hd__and3b_1