*SPEF "ieee 1481-1999"
*DESIGN "freq_psc"
*DATE "14:43:20 Monday October 28, 2024"
*VENDOR "The OpenROAD Project"
*PROGRAM "OpenROAD"
*VERSION "edf00dff99f6c40d67a30c0e22a8191c5d2ed9d6"
*DESIGN_FLOW "NAME_SCOPE LOCAL" "PIN_CAP NONE"
*DIVIDER /
*DELIMITER :
*BUS_DELIMITER []
*T_UNIT 1 NS
*C_UNIT 1 PF
*R_UNIT 1 OHM
*L_UNIT 1 HENRY

*NAME_MAP
*3 clk
*4 out
*5 psc[0]
*6 psc[1]
*7 psc[2]
*8 psc[3]
*9 psc[4]
*10 psc[5]
*11 psc[6]
*12 psc[7]
*13 rst
*14 _000_
*15 _001_
*16 _002_
*17 _003_
*18 _004_
*19 _005_
*20 _006_
*21 _007_
*22 _008_
*23 _009_
*24 _010_
*25 _011_
*26 _012_
*27 _013_
*28 _014_
*29 _015_
*30 _016_
*31 _017_
*32 _018_
*33 _019_
*34 _020_
*35 _021_
*36 _022_
*37 _023_
*38 _024_
*39 _025_
*40 _026_
*41 _027_
*42 _028_
*43 _029_
*44 _030_
*45 _031_
*46 _032_
*47 _033_
*48 _034_
*49 _035_
*50 _036_
*51 _037_
*52 _038_
*53 _039_
*54 _040_
*55 _041_
*56 _042_
*57 _043_
*58 _044_
*59 _045_
*60 _046_
*61 _047_
*62 _048_
*63 _049_
*64 _050_
*65 _051_
*66 _052_
*67 _053_
*68 _054_
*69 _055_
*70 _056_
*71 _057_
*72 _058_
*73 _059_
*74 _060_
*75 _061_
*76 _062_
*77 _063_
*78 _064_
*79 _065_
*80 _066_
*81 _067_
*82 _068_
*83 _069_
*84 _070_
*85 _071_
*86 _072_
*87 clknet_0_clk
*88 clknet_1_0__leaf_clk
*89 clknet_1_1__leaf_clk
*90 counter\[0\]
*91 counter\[1\]
*92 counter\[2\]
*93 counter\[3\]
*94 counter\[4\]
*95 counter\[5\]
*96 counter\[6\]
*97 counter\[7\]
*98 net1
*99 net10
*100 net11
*101 net12
*102 net2
*103 net3
*104 net4
*105 net5
*106 net6
*107 net7
*108 net8
*109 net9
*110 FILLER_0_15
*111 FILLER_0_27
*112 FILLER_0_29
*113 FILLER_0_3
*114 FILLER_0_41
*115 FILLER_0_53
*116 FILLER_0_57
*117 FILLER_0_69
*118 FILLER_10_20
*119 FILLER_10_24
*120 FILLER_10_29
*121 FILLER_10_41
*122 FILLER_10_47
*123 FILLER_10_51
*124 FILLER_10_57
*125 FILLER_10_63
*126 FILLER_10_80
*127 FILLER_11_19
*128 FILLER_11_39
*129 FILLER_11_51
*130 FILLER_11_55
*131 FILLER_11_6
*132 FILLER_11_64
*133 FILLER_12_36
*134 FILLER_12_45
*135 FILLER_12_6
*136 FILLER_12_80
*137 FILLER_13_15
*138 FILLER_13_23
*139 FILLER_13_3
*140 FILLER_13_32
*141 FILLER_13_44
*142 FILLER_13_55
*143 FILLER_13_57
*144 FILLER_13_65
*145 FILLER_13_77
*146 FILLER_1_15
*147 FILLER_1_27
*148 FILLER_1_3
*149 FILLER_1_35
*150 FILLER_1_60
*151 FILLER_1_72
*152 FILLER_2_3
*153 FILLER_2_32
*154 FILLER_2_57
*155 FILLER_2_81
*156 FILLER_3_14
*157 FILLER_3_26
*158 FILLER_3_3
*159 FILLER_3_54
*160 FILLER_3_57
*161 FILLER_3_7
*162 FILLER_3_74
*163 FILLER_3_80
*164 FILLER_4_3
*165 FILLER_4_32
*166 FILLER_4_44
*167 FILLER_5_28
*168 FILLER_5_32
*169 FILLER_6_15
*170 FILLER_6_24
*171 FILLER_6_60
*172 FILLER_7_43
*173 FILLER_7_55
*174 FILLER_7_57
*175 FILLER_8_10
*176 FILLER_8_18
*177 FILLER_8_24
*178 FILLER_8_29
*179 FILLER_8_3
*180 FILLER_8_41
*181 FILLER_8_56
*182 FILLER_8_80
*183 FILLER_9_12
*184 FILLER_9_3
*185 FILLER_9_31
*186 FILLER_9_41
*187 FILLER_9_45
*188 FILLER_9_55
*189 FILLER_9_57
*190 FILLER_9_62
*191 FILLER_9_70
*192 PHY_EDGE_ROW_0_Left_14
*193 PHY_EDGE_ROW_0_Right_0
*194 PHY_EDGE_ROW_10_Left_24
*195 PHY_EDGE_ROW_10_Right_10
*196 PHY_EDGE_ROW_11_Left_25
*197 PHY_EDGE_ROW_11_Right_11
*198 PHY_EDGE_ROW_12_Left_26
*199 PHY_EDGE_ROW_12_Right_12
*200 PHY_EDGE_ROW_13_Left_27
*201 PHY_EDGE_ROW_13_Right_13
*202 PHY_EDGE_ROW_1_Left_15
*203 PHY_EDGE_ROW_1_Right_1
*204 PHY_EDGE_ROW_2_Left_16
*205 PHY_EDGE_ROW_2_Right_2
*206 PHY_EDGE_ROW_3_Left_17
*207 PHY_EDGE_ROW_3_Right_3
*208 PHY_EDGE_ROW_4_Left_18
*209 PHY_EDGE_ROW_4_Right_4
*210 PHY_EDGE_ROW_5_Left_19
*211 PHY_EDGE_ROW_5_Right_5
*212 PHY_EDGE_ROW_6_Left_20
*213 PHY_EDGE_ROW_6_Right_6
*214 PHY_EDGE_ROW_7_Left_21
*215 PHY_EDGE_ROW_7_Right_7
*216 PHY_EDGE_ROW_8_Left_22
*217 PHY_EDGE_ROW_8_Right_8
*218 PHY_EDGE_ROW_9_Left_23
*219 PHY_EDGE_ROW_9_Right_9
*220 TAP_TAPCELL_ROW_0_28
*221 TAP_TAPCELL_ROW_0_29
*222 TAP_TAPCELL_ROW_10_39
*223 TAP_TAPCELL_ROW_11_40
*224 TAP_TAPCELL_ROW_12_41
*225 TAP_TAPCELL_ROW_13_42
*226 TAP_TAPCELL_ROW_13_43
*227 TAP_TAPCELL_ROW_1_30
*228 TAP_TAPCELL_ROW_2_31
*229 TAP_TAPCELL_ROW_3_32
*230 TAP_TAPCELL_ROW_4_33
*231 TAP_TAPCELL_ROW_5_34
*232 TAP_TAPCELL_ROW_6_35
*233 TAP_TAPCELL_ROW_7_36
*234 TAP_TAPCELL_ROW_8_37
*235 TAP_TAPCELL_ROW_9_38
*236 _073_
*237 _074_
*238 _075_
*239 _076_
*240 _077_
*241 _078_
*242 _079_
*243 _080_
*244 _081_
*245 _082_
*246 _083_
*247 _084_
*248 _085_
*249 _086_
*250 _087_
*251 _088_
*252 _089_
*253 _090_
*254 _091_
*255 _092_
*256 _093_
*257 _094_
*258 _095_
*259 _096_
*260 _097_
*261 _098_
*262 _099_
*263 _100_
*264 _101_
*265 _102_
*266 _103_
*267 _104_
*268 _105_
*269 _106_
*270 _107_
*271 _108_
*272 _109_
*273 _110_
*274 _111_
*275 _112_
*276 _113_
*277 _114_
*278 _115_
*279 _116_
*280 _117_
*281 _118_
*282 _119_
*283 _120_
*284 _121_
*285 _122_
*286 _123_
*287 _124_
*288 _125_
*289 _126_
*290 _127_
*291 _128_
*292 _129_
*293 _130_
*294 _131_
*295 _132_
*296 _133_
*297 _134_
*298 _135_
*299 _136_
*300 _137_
*301 _138_
*302 _139_
*303 _140_
*304 _141_
*305 _142_
*306 _143_
*307 _144_
*308 _145_
*309 _146_
*310 _147_
*311 _148_
*312 _149_
*313 _150_
*314 _151_
*315 _152_
*316 _153_
*317 _154_
*318 clkbuf_0_clk
*319 clkbuf_1_0__f_clk
*320 clkbuf_1_1__f_clk
*321 clkload0
*322 hold1
*323 hold2
*324 input1
*325 input2
*326 input3
*327 input4
*328 input5
*329 input6
*330 input7
*331 input8
*332 input9
*333 output10

*PORTS
clk I
out O
psc[0] I
psc[1] I
psc[2] I
psc[3] I
psc[4] I
psc[5] I
psc[6] I
psc[7] I
rst I

*D_NET *3 0.00300741
*CONN
*P clk I
*I *318:A I *D sky130_fd_sc_hd__clkbuf_16
*CAP
1 clk 0.00146363
2 *318:A 0.00146363
3 *318:A *279:B 4.00743e-05
4 *318:A *313:CLK 4.00743e-05
*RES
1 clk *318:A 7.53457 
*END

*D_NET *4 0.00126692
*CONN
*P out O
*I *333:X O *D sky130_fd_sc_hd__buf_2
*CAP
1 out 0.000454563
2 *333:X 0.000454563
3 out *244:A 0.000228189
4 out *300:B1 8.57024e-05
5 out *331:A 0
6 out *333:A 0
7 out *65:26 0
8 out *96:25 0
9 out *97:23 2.56523e-05
10 out *97:36 1.82476e-05
*RES
1 *333:X out 8.27483 
*END

*D_NET *5 0.000535528
*CONN
*P psc[0] I
*I *324:A I *D sky130_fd_sc_hd__buf_1
*CAP
1 psc[0] 0.000232833
2 *324:A 0.000232833
3 *324:A *255:A_N 1.88656e-05
4 *324:A *257:A2 0
5 *324:A *325:A 2.85068e-05
6 *324:A *326:A 2.24901e-05
*RES
1 psc[0] *324:A 5.61177 
*END

*D_NET *6 0.000596834
*CONN
*P psc[1] I
*I *325:A I *D sky130_fd_sc_hd__dlymetal6s2s_1
*CAP
1 psc[1] 0.000284164
2 *325:A 0.000284164
3 *325:A *255:A_N 0
4 *324:A *325:A 2.85068e-05
*RES
1 psc[1] *325:A 7.3443 
*END

*D_NET *7 0.000567377
*CONN
*P psc[2] I
*I *326:A I *D sky130_fd_sc_hd__buf_1
*CAP
1 psc[2] 0.000272443
2 *326:A 0.000272443
3 *324:A *326:A 2.24901e-05
*RES
1 psc[2] *326:A 7.0893 
*END

*D_NET *8 0.00136109
*CONN
*P psc[3] I
*I *327:A I *D sky130_fd_sc_hd__clkbuf_1
*CAP
1 psc[3] 0.00063189
2 *327:A 0.00063189
3 *327:A *251:A 7.89269e-05
4 *327:A *36:10 1.83847e-05
*RES
1 psc[3] *327:A 14.4 
*END

*D_NET *9 0.00124604
*CONN
*P psc[4] I
*I *328:A I *D sky130_fd_sc_hd__buf_1
*CAP
1 psc[4] 0.000595169
2 *328:A 0.000595169
3 *328:A *262:A1 3.73209e-05
4 *328:A *329:A 0
5 *328:A *106:8 1.83847e-05
*RES
1 psc[4] *328:A 13.575 
*END

*D_NET *10 0.00107443
*CONN
*P psc[5] I
*I *329:A I *D sky130_fd_sc_hd__buf_1
*CAP
1 psc[5] 0.000512236
2 *329:A 0.000512236
3 *329:A *330:A 0
4 *329:A *106:8 4.99619e-05
5 *328:A *329:A 0
*RES
1 psc[5] *329:A 12.57 
*END

*D_NET *11 0.000950729
*CONN
*P psc[6] I
*I *330:A I *D sky130_fd_sc_hd__buf_1
*CAP
1 psc[6] 0.000475364
2 *330:A 0.000475364
3 *329:A *330:A 0
*RES
1 psc[6] *330:A 11.88 
*END

*D_NET *12 0.000676374
*CONN
*P psc[7] I
*I *331:A I *D sky130_fd_sc_hd__dlymetal6s2s_1
*CAP
1 psc[7] 0.000260784
2 *331:A 0.000260784
3 *331:A *97:36 0.000154806
4 out *331:A 0
*RES
1 psc[7] *331:A 6.37677 
*END

*D_NET *13 0.000594581
*CONN
*P rst I
*I *322:A I *D sky130_fd_sc_hd__dlygate4sd3_1
*CAP
1 rst 0.000297291
2 *322:A 0.000297291
3 *322:A *109:12 0
*RES
1 rst *322:A 6.37677 
*END

*D_NET *14 0.000308198
*CONN
*I *310:D I *D sky130_fd_sc_hd__dfrtp_2
*I *271:X O *D sky130_fd_sc_hd__and2b_1
*CAP
1 *310:D 9.29299e-05
2 *271:X 9.29299e-05
3 *310:D *88:14 7.4027e-05
4 *310:D *88:21 4.83113e-05
*RES
1 *271:X *310:D 8.79375 
*END

*D_NET *15 0.000507581
*CONN
*I *311:D I *D sky130_fd_sc_hd__dfrtp_2
*I *273:X O *D sky130_fd_sc_hd__and3_1
*CAP
1 *311:D 8.74541e-05
2 *273:X 8.74541e-05
3 *311:D *273:C 9.71406e-05
4 *311:D *274:A 3.76697e-05
5 *311:D *275:A 4.66108e-05
6 *311:D *49:10 7.55313e-05
7 *311:D *65:85 7.57202e-05
8 *311:D *90:23 0
*RES
1 *273:X *311:D 9.975 
*END

*D_NET *16 0.000414789
*CONN
*I *312:D I *D sky130_fd_sc_hd__dfrtp_2
*I *275:X O *D sky130_fd_sc_hd__and2_1
*CAP
1 *312:D 0.00017012
2 *275:X 0.00017012
3 *312:D *88:8 2.75229e-05
4 *312:D *88:10 4.70256e-05
5 *312:D *90:23 0
*RES
1 *275:X *312:D 9.72 
*END

*D_NET *17 0.000303169
*CONN
*I *313:D I *D sky130_fd_sc_hd__dfrtp_1
*I *279:X O *D sky130_fd_sc_hd__and3_1
*CAP
1 *313:D 0.000110826
2 *279:X 0.000110826
3 *313:D *279:B 1.06624e-05
4 *313:D *313:CLK 7.08554e-05
*RES
1 *279:X *313:D 5.045 
*END

*D_NET *18 0.00100179
*CONN
*I *314:D I *D sky130_fd_sc_hd__dfrtp_2
*I *282:X O *D sky130_fd_sc_hd__and3_1
*CAP
1 *314:D 0.000270309
2 *282:X 0.000270309
3 *314:D *282:B 0.000195176
4 *314:D *313:CLK 0.000140728
5 *314:D *95:10 0
6 *314:D *109:58 0.000125264
*RES
1 *282:X *314:D 12.06 
*END

*D_NET *19 0.000527693
*CONN
*I *315:D I *D sky130_fd_sc_hd__dfrtp_1
*I *286:X O *D sky130_fd_sc_hd__and3_1
*CAP
1 *315:D 0.0002486
2 *286:X 0.0002486
3 *315:D *286:B 2.97004e-06
4 *315:D *315:CLK 0
5 *315:D *89:18 0
6 *315:D *94:22 2.75229e-05
7 *315:D *95:10 0
*RES
1 *286:X *315:D 10.815 
*END

*D_NET *20 0.00106113
*CONN
*I *316:D I *D sky130_fd_sc_hd__dfrtp_1
*I *289:X O *D sky130_fd_sc_hd__and3_1
*CAP
1 *316:D 0.000281314
2 *289:X 0.000281314
3 *316:D *289:C 0.000234674
4 *316:D *89:12 9.14049e-05
5 *316:D *89:18 8.76986e-05
6 *316:D *94:47 0
7 *316:D *109:37 6.9451e-05
8 *316:D *109:100 1.52776e-05
*RES
1 *289:X *316:D 12.795 
*END

*D_NET *21 0.000254266
*CONN
*I *317:D I *D sky130_fd_sc_hd__dfrtp_2
*I *291:X O *D sky130_fd_sc_hd__and2_1
*CAP
1 *317:D 5.90755e-05
2 *291:X 5.90755e-05
3 *317:D *291:B 5.21046e-05
4 *317:D *65:26 3.00381e-05
5 *317:D *109:100 5.39718e-05
*RES
1 *291:X *317:D 8.775 
*END

*D_NET *22 0.000800386
*CONN
*I *309:D I *D sky130_fd_sc_hd__dfrtp_1
*I *300:Y O *D sky130_fd_sc_hd__a21oi_1
*CAP
1 *309:D 0.0001683
2 *300:Y 0.0001683
3 *309:D *300:A2 0.000160641
4 *309:D *32:10 7.38929e-05
5 *309:D *65:8 6.14602e-05
6 *309:D *96:38 0.000116151
7 *309:D *96:60 5.16418e-05
*RES
1 *300:Y *309:D 11.3363 
*END

*D_NET *23 0.000239432
*CONN
*I *309:RESET_B I *D sky130_fd_sc_hd__dfrtp_1
*I *244:Y O *D sky130_fd_sc_hd__inv_2
*CAP
1 *309:RESET_B 3.50635e-05
2 *244:Y 3.50635e-05
3 *309:RESET_B *244:A 0.000120186
4 *309:RESET_B *97:36 4.91189e-05
*RES
1 *244:Y *309:RESET_B 6.98 
*END

*D_NET *24 0.000450286
*CONN
*I *310:RESET_B I *D sky130_fd_sc_hd__dfrtp_2
*I *301:Y O *D sky130_fd_sc_hd__inv_2
*CAP
1 *310:RESET_B 0.000125189
2 *301:Y 0.000125189
3 *310:RESET_B *88:21 0.000111642
4 *310:RESET_B *109:64 8.8266e-05
*RES
1 *301:Y *310:RESET_B 4.0675 
*END

*D_NET *25 0.0002297
*CONN
*I *311:RESET_B I *D sky130_fd_sc_hd__dfrtp_2
*I *302:Y O *D sky130_fd_sc_hd__inv_2
*CAP
1 *311:RESET_B 0.00011485
2 *302:Y 0.00011485
3 *311:RESET_B *90:23 0
4 *311:RESET_B *92:21 0
*RES
1 *302:Y *311:RESET_B 7.49 
*END

*D_NET *26 0.000416338
*CONN
*I *312:RESET_B I *D sky130_fd_sc_hd__dfrtp_2
*I *303:Y O *D sky130_fd_sc_hd__inv_2
*CAP
1 *312:RESET_B 0.000164871
2 *303:Y 0.000164871
3 *312:RESET_B *303:A 8.65961e-05
*RES
1 *303:Y *312:RESET_B 4.0675 
*END

*D_NET *27 0.000268606
*CONN
*I *313:RESET_B I *D sky130_fd_sc_hd__dfrtp_1
*I *304:Y O *D sky130_fd_sc_hd__inv_2
*CAP
1 *313:RESET_B 0.000113295
2 *304:Y 0.000113295
3 *313:RESET_B *93:6 4.20162e-05
*RES
1 *304:Y *313:RESET_B 3.3775 
*END

*D_NET *28 0.000403571
*CONN
*I *314:RESET_B I *D sky130_fd_sc_hd__dfrtp_2
*I *305:Y O *D sky130_fd_sc_hd__inv_2
*CAP
1 *314:RESET_B 6.47118e-05
2 *305:Y 6.47118e-05
3 *314:RESET_B *94:10 4.10576e-05
4 *314:RESET_B *109:58 0.00023309
*RES
1 *305:Y *314:RESET_B 3.7225 
*END

*D_NET *29 0.00077354
*CONN
*I *315:RESET_B I *D sky130_fd_sc_hd__dfrtp_1
*I *306:Y O *D sky130_fd_sc_hd__inv_2
*CAP
1 *315:RESET_B 0.000327917
2 *306:Y 0.000327917
3 *315:RESET_B *315:CLK 7.35729e-05
4 *315:RESET_B *95:10 4.4133e-05
*RES
1 *306:Y *315:RESET_B 5.9125 
*END

*D_NET *30 0.000298805
*CONN
*I *316:RESET_B I *D sky130_fd_sc_hd__dfrtp_1
*I *307:Y O *D sky130_fd_sc_hd__inv_2
*CAP
1 *316:RESET_B 0.000107076
2 *307:Y 0.000107076
3 *316:RESET_B *307:A 4.82919e-05
4 *316:RESET_B *96:10 3.63611e-05
*RES
1 *307:Y *316:RESET_B 3.3775 
*END

*D_NET *31 0.000616356
*CONN
*I *317:RESET_B I *D sky130_fd_sc_hd__dfrtp_2
*I *308:Y O *D sky130_fd_sc_hd__inv_2
*CAP
1 *317:RESET_B 0.000271267
2 *308:Y 0.000271267
3 *317:RESET_B *289:C 0
4 *317:RESET_B *290:A 4.7043e-05
5 *317:RESET_B *96:25 0
6 *317:RESET_B *97:23 1.82476e-05
7 *317:RESET_B *109:27 8.53113e-06
*RES
1 *308:Y *317:RESET_B 10.2875 
*END

*D_NET *32 0.00140129
*CONN
*I *292:A I *D sky130_fd_sc_hd__or2_1
*I *299:B2 I *D sky130_fd_sc_hd__a221o_1
*I *236:Y O *D sky130_fd_sc_hd__inv_2
*CAP
1 *292:A 0
2 *299:B2 0.000270766
3 *236:Y 0.0001483
4 *32:10 0.000419066
5 *299:B2 *293:A 4.33197e-05
6 *299:B2 *299:B1 0.000201503
7 *299:B2 *300:A2 3.38425e-05
8 *32:10 *300:A1 8.65961e-05
9 *32:10 *300:A2 0.000124007
10 *309:D *32:10 7.38929e-05
*RES
1 *236:Y *32:10 4.93 
2 *32:10 *299:B2 5.68 
3 *32:10 *292:A 1.6 
*END

*D_NET *33 0.00103893
*CONN
*I *293:A I *D sky130_fd_sc_hd__or2_1
*I *299:A1 I *D sky130_fd_sc_hd__a221o_1
*I *237:Y O *D sky130_fd_sc_hd__inv_2
*CAP
1 *293:A 0.000156881
2 *299:A1 0
3 *237:Y 0.000157822
4 *33:12 0.000314703
5 *293:A *299:A2 0.000107622
6 *293:A *299:B1 3.00381e-05
7 *293:A *95:44 0.000158066
8 *33:12 *237:A 1.83756e-05
9 *33:12 *299:C1 0
10 *33:12 *95:48 5.21046e-05
11 *33:12 *96:60 0
12 *299:B2 *293:A 4.33197e-05
*RES
1 *237:Y *33:12 7.685 
2 *33:12 *299:A1 1.6 
3 *33:12 *293:A 5.185 
*END

*D_NET *34 0.000928694
*CONN
*I *298:A1 I *D sky130_fd_sc_hd__o221a_1
*I *297:B2 I *D sky130_fd_sc_hd__a22o_1
*I *238:Y O *D sky130_fd_sc_hd__inv_2
*CAP
1 *298:A1 0
2 *297:B2 0.000155966
3 *238:Y 0.000187834
4 *34:10 0.000343801
5 *297:B2 *298:B2 1.01661e-05
6 *297:B2 *298:C1 0.000187071
7 *297:B2 *94:60 0
8 *297:B2 *94:86 0
9 *297:B2 *95:44 2.24423e-05
10 *34:10 *298:C1 2.14129e-05
11 *34:10 *35:23 0
12 *34:10 *94:86 0
*RES
1 *238:Y *34:10 6.12 
2 *34:10 *297:B2 6.795 
3 *34:10 *298:A1 3.6 
*END

*D_NET *35 0.00288929
*CONN
*I *296:B2 I *D sky130_fd_sc_hd__o221a_1
*I *297:A1 I *D sky130_fd_sc_hd__a22o_1
*I *259:A I *D sky130_fd_sc_hd__xnor2_1
*I *239:Y O *D sky130_fd_sc_hd__inv_2
*CAP
1 *296:B2 0.000251527
2 *297:A1 7.63506e-05
3 *259:A 0.000282702
4 *239:Y 4.25578e-05
5 *35:23 0.000560402
6 *35:6 0.000557784
7 *259:A *251:A 0
8 *259:A *268:A1 0.000272485
9 *259:A *93:55 2.97561e-05
10 *296:B2 *296:A1 9.76407e-06
11 *296:B2 *296:A2 4.75959e-05
12 *296:B2 *296:B1 4.78678e-05
13 *296:B2 *296:C1 0
14 *296:B2 *298:B1 0.000273639
15 *297:A1 *297:A2 4.1652e-06
16 *297:A1 *297:B1 0.000164679
17 *297:A1 *93:36 0
18 *35:6 *268:A1 8.40269e-05
19 *35:23 *238:A 0.000164679
20 *35:23 *297:B1 8.53113e-06
21 *35:23 *298:B2 1.07797e-05
22 *35:23 *298:C1 0
23 *35:23 *93:36 0
24 *35:23 *93:55 0
25 *35:23 *94:86 0
26 *34:10 *35:23 0
*RES
1 *239:Y *35:6 2.395 
2 *35:6 *259:A 10.52 
3 *35:6 *35:23 6.185 
4 *35:23 *297:A1 5.49 
5 *35:23 *296:B2 8.205 
*END

*D_NET *36 0.00306051
*CONN
*I *251:A I *D sky130_fd_sc_hd__xnor2_1
*I *296:A1 I *D sky130_fd_sc_hd__o221a_1
*I *295:B2 I *D sky130_fd_sc_hd__a221o_1
*I *240:Y O *D sky130_fd_sc_hd__inv_2
*CAP
1 *251:A 0.000213172
2 *296:A1 0.000398084
3 *295:B2 3.8042e-05
4 *240:Y 0
5 *36:10 0.0007638
6 *36:4 0.000540845
7 *251:A *247:A 0
8 *251:A *104:8 8.65961e-05
9 *295:B2 *242:A 0
10 *295:B2 *294:A1 4.18603e-06
11 *295:B2 *295:A1 2.49708e-05
12 *295:B2 *92:62 8.53113e-06
13 *295:B2 *92:71 4.14369e-05
14 *296:A1 *295:A1 8.40269e-05
15 *296:A1 *295:A2 2.42808e-05
16 *296:A1 *296:A2 6.63502e-06
17 *296:A1 *296:B1 7.27003e-05
18 *296:A1 *296:C1 5.2397e-05
19 *296:A1 *92:25 8.30828e-06
20 *36:10 *240:A 1.1561e-05
21 *36:10 *241:A 0.000110287
22 *36:10 *242:A 0
23 *36:10 *247:A 6.55406e-05
24 *36:10 *258:A1 6.10864e-05
25 *36:10 *258:A2 3.23391e-05
26 *36:10 *258:A3 5.39961e-05
27 *36:10 *261:A2 0
28 *36:10 *46:10 0
29 *36:10 *92:71 0.000250609
30 *259:A *251:A 0
31 *296:B2 *296:A1 9.76407e-06
32 *327:A *251:A 7.89269e-05
33 *327:A *36:10 1.83847e-05
*RES
1 *240:Y *36:4 1.6 
2 *36:4 *36:10 9.695 
3 *36:10 *295:B2 4.455 
4 *36:10 *296:A1 8.805 
5 *36:4 *251:A 9.32 
*END

*D_NET *37 0.00111068
*CONN
*I *295:A1 I *D sky130_fd_sc_hd__a221o_1
*I *294:B2 I *D sky130_fd_sc_hd__o22a_1
*I *241:Y O *D sky130_fd_sc_hd__inv_2
*CAP
1 *295:A1 0.000181074
2 *294:B2 0
3 *241:Y 0.000162708
4 *37:12 0.000343781
5 *295:A1 *295:A2 1.16578e-05
6 *295:A1 *295:C1 9.14035e-05
7 *295:A1 *92:25 8.73389e-06
8 *37:12 *241:A 3.00381e-05
9 *37:12 *242:A 0.000116158
10 *37:12 *256:A2 2.67022e-05
11 *37:12 *257:A1 0
12 *37:12 *91:18 4.43871e-06
13 *37:12 *102:17 2.49909e-05
14 *295:B2 *295:A1 2.49708e-05
15 *296:A1 *295:A1 8.40269e-05
*RES
1 *241:Y *37:12 8.12 
2 *37:12 *294:B2 1.6 
3 *37:12 *295:A1 4.825 
*END

*D_NET *38 0.00025496
*CONN
*I *294:A1 I *D sky130_fd_sc_hd__o22a_1
*I *242:Y O *D sky130_fd_sc_hd__inv_2
*CAP
1 *294:A1 8.76173e-05
2 *242:Y 8.76173e-05
3 *294:A1 *242:A 7.55391e-05
4 *294:A1 *92:21 0
5 *294:A1 *92:62 0
6 *295:B2 *294:A1 4.18603e-06
*RES
1 *242:Y *294:A1 8.835 
*END

*D_NET *39 0.000636756
*CONN
*I *256:A2 I *D sky130_fd_sc_hd__a31o_1
*I *243:Y O *D sky130_fd_sc_hd__inv_2
*CAP
1 *256:A2 0.000232435
2 *243:Y 0.000232435
3 *256:A2 *242:A 0
4 *256:A2 *257:A1 0
5 *256:A2 *91:20 0.000145184
6 *37:12 *256:A2 2.67022e-05
*RES
1 *243:Y *256:A2 10.755 
*END

*D_NET *40 0.0002015
*CONN
*I *256:B1 I *D sky130_fd_sc_hd__a31o_1
*I *245:Y O *D sky130_fd_sc_hd__nor2_1
*CAP
1 *256:B1 6.48265e-05
2 *245:Y 6.48265e-05
3 *256:B1 *257:A1 0
4 *256:B1 *98:23 4.43871e-06
5 *256:B1 *102:30 6.74079e-05
*RES
1 *245:Y *256:B1 8.58 
*END

*D_NET *41 0.00202702
*CONN
*I *251:B I *D sky130_fd_sc_hd__xnor2_1
*I *258:A2 I *D sky130_fd_sc_hd__a32o_1
*I *253:A1 I *D sky130_fd_sc_hd__a21oi_1
*I *246:X O *D sky130_fd_sc_hd__or3_1
*CAP
1 *251:B 0.000239842
2 *258:A2 9.29463e-05
3 *253:A1 4.31529e-05
4 *246:X 0
5 *41:23 0.000598609
6 *41:4 0.000308974
7 *251:B *247:A 6.27529e-05
8 *251:B *42:8 3.99879e-05
9 *253:A1 *253:A2 9.50342e-06
10 *253:A1 *47:8 6.45236e-05
11 *258:A2 *241:A 0.000116151
12 *258:A2 *258:A3 7.51045e-05
13 *258:A2 *258:B1 3.95408e-06
14 *258:A2 *261:B1 0
15 *258:A2 *261:B2 8.69789e-05
16 *41:23 *246:C 0.000101273
17 *41:23 *247:A 3.64998e-06
18 *41:23 *247:C 3.54592e-05
19 *41:23 *102:40 9.61248e-05
20 *41:23 *103:30 1.5693e-05
21 *36:10 *258:A2 3.23391e-05
*RES
1 *246:X *41:4 1.6 
2 *41:4 *253:A1 6.47 
3 *41:4 *41:23 4.035 
4 *41:23 *258:A2 8.49875 
5 *41:23 *251:B 4.99 
*END

*D_NET *42 0.00142111
*CONN
*I *262:A2 I *D sky130_fd_sc_hd__o21ai_1
*I *248:C I *D sky130_fd_sc_hd__or3_1
*I *259:B I *D sky130_fd_sc_hd__xnor2_1
*I *247:X O *D sky130_fd_sc_hd__or4_4
*CAP
1 *262:A2 9.13449e-05
2 *248:C 0
3 *259:B 0
4 *247:X 0.000325139
5 *42:21 0.00027718
6 *42:8 0.000510974
7 *262:A2 *238:A 4.43871e-06
8 *262:A2 *106:12 7.18817e-05
9 *42:8 *247:A 4.82863e-05
10 *42:8 *46:10 1.33269e-05
11 *42:21 *263:A 0
12 *42:21 *263:B 0
13 *42:21 *54:12 3.85508e-05
14 *251:B *42:8 3.99879e-05
*RES
1 *247:X *42:8 6.55 
2 *42:8 *259:B 1.6 
3 *42:8 *42:21 3.12 
4 *42:21 *248:C 1.6 
5 *42:21 *262:A2 7.235 
*END

*D_NET *43 0.00116069
*CONN
*I *266:B I *D sky130_fd_sc_hd__nand2_1
*I *249:B I *D sky130_fd_sc_hd__nor2_2
*I *263:A I *D sky130_fd_sc_hd__and2_1
*I *248:X O *D sky130_fd_sc_hd__or3_1
*CAP
1 *266:B 0.000201069
2 *249:B 0
3 *263:A 1.55346e-05
4 *248:X 5.98943e-05
5 *43:19 0.000351837
6 *43:8 0.000226197
7 *263:A *263:B 9.53428e-06
8 *266:B *250:B 4.99619e-05
9 *266:B *263:B 0
10 *266:B *267:B 5.39718e-05
11 *266:B *44:8 3.21904e-05
12 *266:B *107:10 6.36578e-05
13 *43:8 *263:B 5.30673e-05
14 *43:19 *263:B 3.00381e-05
15 *43:19 *44:8 1.37328e-05
16 *42:21 *263:A 0
*RES
1 *248:X *43:8 2.755 
2 *43:8 *263:A 1.96 
3 *43:8 *43:19 2.535 
4 *43:19 *249:B 1.6 
5 *43:19 *266:B 9.59 
*END

*D_NET *44 0.000597012
*CONN
*I *250:B I *D sky130_fd_sc_hd__xnor2_2
*I *267:A_N I *D sky130_fd_sc_hd__and2b_1
*I *249:Y O *D sky130_fd_sc_hd__nor2_2
*CAP
1 *250:B 0.000155018
2 *267:A_N 0
3 *249:Y 9.55459e-05
4 *44:8 0.000250564
5 *266:B *250:B 4.99619e-05
6 *266:B *44:8 3.21904e-05
7 *43:19 *44:8 1.37328e-05
*RES
1 *249:Y *44:8 3.01 
2 *44:8 *267:A_N 1.6 
3 *44:8 *250:B 4.12 
*END

*D_NET *45 0.000799323
*CONN
*I *270:A2 I *D sky130_fd_sc_hd__o22ai_4
*I *269:A2 I *D sky130_fd_sc_hd__a22o_1
*I *250:Y O *D sky130_fd_sc_hd__xnor2_2
*CAP
1 *270:A2 0
2 *269:A2 7.50381e-05
3 *250:Y 0.00013345
4 *45:10 0.000208489
5 *269:A2 *250:A 0.000206817
6 *269:A2 *270:B2 6.55328e-05
7 *45:10 *250:A 0.000109995
*RES
1 *250:Y *45:10 5.775 
2 *45:10 *269:A2 6 
3 *45:10 *270:A2 3.6 
*END

*D_NET *46 0.000919077
*CONN
*I *258:B1 I *D sky130_fd_sc_hd__a32o_1
*I *261:A2 I *D sky130_fd_sc_hd__o221a_1
*I *251:Y O *D sky130_fd_sc_hd__xnor2_1
*CAP
1 *258:B1 0.000195012
2 *261:A2 3.43301e-05
3 *251:Y 9.87256e-05
4 *46:10 0.000328067
5 *258:B1 *261:B2 4.66589e-05
6 *258:B1 *261:C1 0.000180806
7 *261:A2 *258:B2 1.81958e-05
8 *258:A2 *258:B1 3.95408e-06
9 *36:10 *261:A2 0
10 *36:10 *46:10 0
11 *42:8 *46:10 1.33269e-05
*RES
1 *251:Y *46:10 4.92 
2 *46:10 *261:A2 4.215 
3 *46:10 *258:B1 6.7425 
*END

*D_NET *47 0.00108072
*CONN
*I *258:A3 I *D sky130_fd_sc_hd__a32o_1
*I *253:A2 I *D sky130_fd_sc_hd__a21oi_1
*I *252:Y O *D sky130_fd_sc_hd__o21ai_1
*CAP
1 *258:A3 0.000277857
2 *253:A2 2.29227e-05
3 *252:Y 2.13317e-05
4 *47:8 0.000322111
5 *253:A2 *257:A1 0
6 *253:A2 *98:23 9.50342e-06
7 *253:A2 *98:32 4.44927e-05
8 *258:A3 *245:B 4.66742e-05
9 *258:A3 *253:B1 5.00018e-05
10 *258:A3 *261:B2 1.03423e-05
11 *47:8 *98:32 7.23602e-05
12 *253:A1 *253:A2 9.50342e-06
13 *253:A1 *47:8 6.45236e-05
14 *258:A2 *258:A3 7.51045e-05
15 *36:10 *258:A3 5.39961e-05
*RES
1 *252:Y *47:8 4.47 
2 *47:8 *253:A2 4.215 
3 *47:8 *258:A3 11.425 
*END

*D_NET *48 0.000160044
*CONN
*I *257:B1 I *D sky130_fd_sc_hd__a21oi_1
*I *253:Y O *D sky130_fd_sc_hd__a21oi_1
*CAP
1 *257:B1 4.62346e-05
2 *253:Y 4.62346e-05
3 *257:B1 *253:B1 3.75364e-05
4 *257:B1 *98:23 3.00381e-05
*RES
1 *253:Y *257:B1 4.37 
*END

*D_NET *49 0.00190227
*CONN
*I *257:A1 I *D sky130_fd_sc_hd__a21oi_1
*I *273:A I *D sky130_fd_sc_hd__and3_1
*I *274:B I *D sky130_fd_sc_hd__xnor2_1
*I *254:Y O *D sky130_fd_sc_hd__nand2_1
*CAP
1 *257:A1 0.00036589
2 *273:A 3.71152e-05
3 *274:B 1.07007e-05
4 *254:Y 0
5 *49:10 0.000203765
6 *49:6 0.000521839
7 *257:A1 *255:A_N 0
8 *257:A1 *256:A3 0.00011852
9 *257:A1 *257:A2 0.000139238
10 *257:A1 *261:B1 1.22505e-05
11 *257:A1 *272:B 2.68721e-05
12 *257:A1 *90:62 0
13 *257:A1 *90:77 0
14 *257:A1 *91:18 0
15 *257:A1 *91:33 0.000130057
16 *257:A1 *98:23 0
17 *273:A *274:A 6.85293e-05
18 *273:A *275:A 1.33293e-05
19 *274:B *274:A 1.61831e-05
20 *274:B *275:A 2.75145e-05
21 *49:10 *272:B 5.13155e-05
22 *49:10 *273:C 8.09021e-06
23 *49:10 *311:CLK 7.55313e-05
24 *49:10 *90:23 0
25 *49:10 *90:62 0
26 *253:A2 *257:A1 0
27 *256:A2 *257:A1 0
28 *256:B1 *257:A1 0
29 *311:D *49:10 7.55313e-05
30 *37:12 *257:A1 0
*RES
1 *254:Y *49:6 3.6 
2 *49:6 *49:10 5.42 
3 *49:10 *274:B 2.05 
4 *49:10 *273:A 2.665 
5 *49:6 *257:A1 10.59 
*END

*D_NET *50 0.000735503
*CONN
*I *256:A3 I *D sky130_fd_sc_hd__a31o_1
*I *255:Y O *D sky130_fd_sc_hd__nand2b_1
*CAP
1 *256:A3 0.000170718
2 *255:Y 0.000170718
3 *256:A3 *255:A_N 0
4 *256:A3 *102:8 0.000275548
5 *257:A1 *256:A3 0.00011852
*RES
1 *255:Y *256:A3 11.1 
*END

*D_NET *51 0.000673485
*CONN
*I *257:A2 I *D sky130_fd_sc_hd__a21oi_1
*I *256:X O *D sky130_fd_sc_hd__a31o_1
*CAP
1 *257:A2 0.000207977
2 *256:X 0.000207977
3 *257:A2 *255:A_N 0
4 *257:A2 *102:8 0.000118294
5 *257:A1 *257:A2 0.000139238
6 *324:A *257:A2 0
*RES
1 *256:X *257:A2 10.665 
*END

*D_NET *52 0.00187949
*CONN
*I *261:B1 I *D sky130_fd_sc_hd__o221a_1
*I *257:Y O *D sky130_fd_sc_hd__a21oi_1
*CAP
1 *261:B1 0.000909261
2 *257:Y 0.000909261
3 *261:B1 *258:B2 8.7152e-06
4 *261:B1 *261:B2 3.58521e-05
5 *261:B1 *261:C1 4.14666e-06
6 *257:A1 *261:B1 1.22505e-05
7 *258:A2 *261:B1 0
*RES
1 *257:Y *261:B1 10.5416 
*END

*D_NET *53 0.000877137
*CONN
*I *261:B2 I *D sky130_fd_sc_hd__o221a_1
*I *258:X O *D sky130_fd_sc_hd__a32o_1
*CAP
1 *261:B2 0.000248073
2 *258:X 0.000248073
3 *261:B2 *253:B1 0.00015896
4 *261:B2 *261:C1 4.22007e-05
5 *258:A2 *261:B2 8.69789e-05
6 *258:A3 *261:B2 1.03423e-05
7 *258:B1 *261:B2 4.66589e-05
8 *261:B1 *261:B2 3.58521e-05
*RES
1 *258:X *261:B2 8.18 
*END

*D_NET *54 0.00173842
*CONN
*I *264:A2 I *D sky130_fd_sc_hd__a22o_1
*I *260:B I *D sky130_fd_sc_hd__or2_1
*I *259:Y O *D sky130_fd_sc_hd__xnor2_1
*CAP
1 *264:A2 0.000422731
2 *260:B 0
3 *259:Y 0.000164285
4 *54:12 0.000587016
5 *264:A2 *260:A 0.000237311
6 *264:A2 *264:A1 2.05056e-05
7 *264:A2 *264:B1 0.000163204
8 *264:A2 *268:A1 1.17409e-05
9 *54:12 *238:A 9.30717e-05
10 *42:21 *54:12 3.85508e-05
*RES
1 *259:Y *54:12 7.865 
2 *54:12 *260:B 1.6 
3 *54:12 *264:A2 7.51 
*END

*D_NET *55 0.000911896
*CONN
*I *261:C1 I *D sky130_fd_sc_hd__o221a_1
*I *260:X O *D sky130_fd_sc_hd__or2_1
*CAP
1 *261:C1 0.000237492
2 *260:X 0.000237492
3 *261:C1 *258:B2 4.77757e-05
4 *261:C1 *268:A1 0.000113053
5 *261:C1 *93:55 4.89295e-05
6 *258:B1 *261:C1 0.000180806
7 *261:B1 *261:C1 4.14666e-06
8 *261:B2 *261:C1 4.22007e-05
*RES
1 *260:X *261:C1 8.15 
*END

*D_NET *56 0.00268533
*CONN
*I *268:A1 I *D sky130_fd_sc_hd__o221a_1
*I *261:X O *D sky130_fd_sc_hd__o221a_1
*CAP
1 *268:A1 0.00073934
2 *261:X 0.00073934
3 *268:A1 *239:A 4.99619e-05
4 *268:A1 *250:A 0
5 *268:A1 *260:A 0.000354017
6 *268:A1 *264:A1 1.4174e-05
7 *268:A1 *264:B1 7.68414e-06
8 *268:A1 *264:B2 0.000123285
9 *268:A1 *270:A1 0
10 *268:A1 *270:B1 3.86529e-05
11 *268:A1 *65:8 0.000137571
12 *259:A *268:A1 0.000272485
13 *261:C1 *268:A1 0.000113053
14 *264:A2 *268:A1 1.17409e-05
15 *35:6 *268:A1 8.40269e-05
*RES
1 *261:X *268:A1 21.63 
*END

*D_NET *57 0.000790093
*CONN
*I *263:B I *D sky130_fd_sc_hd__and2_1
*I *262:Y O *D sky130_fd_sc_hd__o21ai_1
*CAP
1 *263:B 0.000226507
2 *262:Y 0.000226507
3 *263:B *239:A 5.39961e-05
4 *263:B *262:A1 8.40213e-05
5 *263:B *105:6 3.57349e-05
6 *263:B *105:19 7.06865e-05
7 *263:B *107:10 0
8 *263:A *263:B 9.53428e-06
9 *266:B *263:B 0
10 *42:21 *263:B 0
11 *43:8 *263:B 5.30673e-05
12 *43:19 *263:B 3.00381e-05
*RES
1 *262:Y *263:B 11.22 
*END

*D_NET *58 0.00111021
*CONN
*I *264:B1 I *D sky130_fd_sc_hd__a22o_1
*I *265:B I *D sky130_fd_sc_hd__or2_1
*I *263:X O *D sky130_fd_sc_hd__and2_1
*CAP
1 *264:B1 2.99555e-05
2 *265:B 0.000204854
3 *263:X 7.50668e-05
4 *58:8 0.000309876
5 *264:B1 *260:A 4.66108e-05
6 *264:B1 *264:A1 4.99619e-05
7 *264:B1 *264:B2 1.61831e-05
8 *265:B *238:A 0
9 *265:B *94:86 0.000206817
10 *58:8 *237:A 0
11 *58:8 *239:A 0
12 *264:A2 *264:B1 0.000163204
13 *268:A1 *264:B1 7.68414e-06
*RES
1 *263:X *58:8 4.725 
2 *58:8 *265:B 7.395 
3 *58:8 *264:B1 5.085 
*END

*D_NET *59 0.000507358
*CONN
*I *268:A2 I *D sky130_fd_sc_hd__o221a_1
*I *264:X O *D sky130_fd_sc_hd__a22o_1
*CAP
1 *268:A2 0.000146676
2 *264:X 0.000146676
3 *268:A2 *237:A 4.70256e-05
4 *268:A2 *268:C1 4.99619e-05
5 *268:A2 *269:B1 2.16833e-05
6 *268:A2 *269:B2 4.82919e-05
7 *268:A2 *62:10 4.7043e-05
*RES
1 *264:X *268:A2 10.41 
*END

*D_NET *60 0.000132603
*CONN
*I *268:C1 I *D sky130_fd_sc_hd__o221a_1
*I *265:X O *D sky130_fd_sc_hd__or2_1
*CAP
1 *268:C1 4.13207e-05
2 *265:X 4.13207e-05
3 *268:A2 *268:C1 4.99619e-05
*RES
1 *265:X *268:C1 3.995 
*END

*D_NET *61 0.000259831
*CONN
*I *267:B I *D sky130_fd_sc_hd__and2b_1
*I *266:Y O *D sky130_fd_sc_hd__nand2_1
*CAP
1 *267:B 8.91721e-05
2 *266:Y 8.91721e-05
3 *267:B *266:A 2.75145e-05
4 *266:B *267:B 5.39718e-05
*RES
1 *266:Y *267:B 8.775 
*END

*D_NET *62 0.00112518
*CONN
*I *268:B1 I *D sky130_fd_sc_hd__o221a_1
*I *269:B1 I *D sky130_fd_sc_hd__a22o_1
*I *267:X O *D sky130_fd_sc_hd__and2b_1
*CAP
1 *268:B1 0
2 *269:B1 0.000205827
3 *267:X 0.000191847
4 *62:10 0.000397674
5 *269:B1 *269:B2 0.000179705
6 *269:B1 *270:A1 1.16578e-05
7 *62:10 *237:A 0
8 *62:10 *250:A 0
9 *62:10 *270:B1 0
10 *62:10 *65:8 6.0236e-05
11 *62:10 *96:60 9.50342e-06
12 *268:A2 *269:B1 2.16833e-05
13 *268:A2 *62:10 4.7043e-05
*RES
1 *267:X *62:10 9.275 
2 *62:10 *269:B1 5.17 
3 *62:10 *268:B1 1.6 
*END

*D_NET *63 0.000194658
*CONN
*I *270:B1 I *D sky130_fd_sc_hd__o22ai_4
*I *268:X O *D sky130_fd_sc_hd__o221a_1
*CAP
1 *270:B1 4.87903e-05
2 *268:X 4.87903e-05
3 *270:B1 *270:A1 4.91189e-05
4 *270:B1 *65:8 9.3062e-06
5 *268:A1 *270:B1 3.86529e-05
6 *62:10 *270:B1 0
*RES
1 *268:X *270:B1 8.58 
*END

*D_NET *64 0.000664434
*CONN
*I *270:B2 I *D sky130_fd_sc_hd__o22ai_4
*I *269:X O *D sky130_fd_sc_hd__a22o_1
*CAP
1 *270:B2 0.000299451
2 *269:X 0.000299451
3 *269:A2 *270:B2 6.55328e-05
*RES
1 *269:X *270:B2 11.91 
*END

*D_NET *65 0.00964525
*CONN
*I *291:A I *D sky130_fd_sc_hd__and2_1
*I *289:A I *D sky130_fd_sc_hd__and3_1
*I *279:A I *D sky130_fd_sc_hd__and3_1
*I *273:B I *D sky130_fd_sc_hd__and3_1
*I *275:A I *D sky130_fd_sc_hd__and2_1
*I *282:A I *D sky130_fd_sc_hd__and3_1
*I *271:B I *D sky130_fd_sc_hd__and2b_1
*I *286:A I *D sky130_fd_sc_hd__and3_1
*I *270:Y O *D sky130_fd_sc_hd__o22ai_4
*CAP
1 *291:A 0
2 *289:A 0
3 *279:A 0
4 *273:B 0
5 *275:A 0.000373876
6 *282:A 0
7 *271:B 0.000482195
8 *286:A 0.000128127
9 *270:Y 0.000501275
10 *65:85 0.000752242
11 *65:79 0.000666371
12 *65:53 0.00057576
13 *65:47 0.00092355
14 *65:41 0.00054198
15 *65:26 0.000657167
16 *65:8 0.00103031
17 *271:B *271:A_N 0.000119631
18 *271:B *90:12 0.000186204
19 *275:A *274:A 7.34462e-06
20 *275:A *275:B 0.000120288
21 *275:A *311:CLK 4.72602e-05
22 *286:A *286:B 6.02202e-05
23 *286:A *286:C 8.49205e-05
24 *286:A *94:22 7.07397e-05
25 *286:A *94:47 0
26 *286:A *95:27 8.08153e-06
27 *65:8 *236:A 0
28 *65:8 *250:A 0
29 *65:8 *300:B1 0
30 *65:8 *333:A 0
31 *65:8 *96:38 0
32 *65:8 *96:60 0.000158342
33 *65:26 *283:A 0.000206853