*SPEF "ieee 1481-1999"
*DESIGN "freq_psc"
*DATE "14:45:37 Monday October 28, 2024"
*VENDOR "The OpenROAD Project"
*PROGRAM "OpenROAD"
*VERSION "edf00dff99f6c40d67a30c0e22a8191c5d2ed9d6"
*DESIGN_FLOW "NAME_SCOPE LOCAL" "PIN_CAP NONE"
*DIVIDER /
*DELIMITER :
*BUS_DELIMITER []
*T_UNIT 1 NS
*C_UNIT 1 PF
*R_UNIT 1 OHM
*L_UNIT 1 HENRY

*NAME_MAP
*3 clk
*4 out
*5 psc[0]
*6 psc[10]
*7 psc[11]
*8 psc[12]
*9 psc[13]
*10 psc[14]
*11 psc[15]
*12 psc[1]
*13 psc[2]
*14 psc[3]
*15 psc[4]
*16 psc[5]
*17 psc[6]
*18 psc[7]
*19 psc[8]
*20 psc[9]
*21 rst
*22 _000_
*23 _001_
*24 _002_
*25 _003_
*26 _004_
*27 _005_
*28 _006_
*29 _007_
*30 _008_
*31 _009_
*32 _010_
*33 _011_
*34 _012_
*35 _013_
*36 _014_
*37 _015_
*38 _016_
*39 _017_
*40 _018_
*41 _019_
*42 _020_
*43 _021_
*44 _022_
*45 _023_
*46 _024_
*47 _025_
*48 _026_
*49 _027_
*50 _028_
*51 _029_
*52 _030_
*53 _031_
*54 _032_
*55 _033_
*56 _034_
*57 _035_
*58 _036_
*59 _037_
*60 _038_
*61 _039_
*62 _040_
*63 _041_
*64 _042_
*65 _043_
*66 _044_
*67 _045_
*68 _046_
*69 _047_
*70 _048_
*71 _049_
*72 _050_
*73 _051_
*74 _052_
*75 _053_
*76 _054_
*77 _055_
*78 _056_
*79 _057_
*80 _058_
*81 _059_
*82 _060_
*83 _061_
*84 _062_
*85 _063_
*86 _064_
*87 _065_
*88 _066_
*89 _067_
*90 _068_
*91 _069_
*92 _070_
*93 _071_
*94 _072_
*95 _073_
*96 _074_
*97 _075_
*98 _076_
*99 _077_
*100 _078_
*101 _079_
*102 _080_
*103 _081_
*104 _082_
*105 _083_
*106 _084_
*107 _085_
*108 _086_
*109 _087_
*110 _088_
*111 _089_
*112 _090_
*113 _091_
*114 _092_
*115 _093_
*116 _094_
*117 _095_
*118 _096_
*119 _097_
*120 _098_
*121 _099_
*122 _100_
*123 _101_
*124 _102_
*125 _103_
*126 _104_
*127 _105_
*128 _106_
*129 _107_
*130 _108_
*131 _109_
*132 _110_
*133 _111_
*134 _112_
*135 _113_
*136 _114_
*137 _115_
*138 _116_
*139 _117_
*140 _118_
*141 _119_
*142 _120_
*143 _121_
*144 _122_
*145 _123_
*146 _124_
*147 _125_
*148 _126_
*149 _127_
*150 _128_
*151 _129_
*152 _130_
*153 _131_
*154 _132_
*155 _133_
*156 _134_
*157 _135_
*158 _136_
*159 _137_
*160 _138_
*161 _139_
*162 _140_
*163 _141_
*164 _142_
*165 _143_
*166 _144_
*167 _145_
*168 _146_
*169 _147_
*170 _148_
*171 _149_
*172 _150_
*173 _151_
*174 _152_
*175 _153_
*176 _154_
*177 _155_
*178 _156_
*179 _157_
*180 _158_
*181 _159_
*182 _160_
*183 _161_
*184 _162_
*185 _163_
*186 _164_
*187 _165_
*188 _166_
*189 _167_
*190 _168_
*191 _169_
*192 _170_
*193 _171_
*194 _172_
*195 _173_
*196 _174_
*197 _175_
*198 clknet_0_clk
*199 clknet_1_0__leaf_clk
*200 clknet_1_1__leaf_clk
*201 counter\[0\]
*202 counter\[10\]
*203 counter\[11\]
*204 counter\[12\]
*205 counter\[13\]
*206 counter\[14\]
*207 counter\[15\]
*208 counter\[1\]
*209 counter\[2\]
*210 counter\[3\]
*211 counter\[4\]
*212 counter\[5\]
*213 counter\[6\]
*214 counter\[7\]
*215 counter\[8\]
*216 counter\[9\]
*217 net1
*218 net10
*219 net11
*220 net12
*221 net13
*222 net14
*223 net15
*224 net16
*225 net17
*226 net18
*227 net19
*228 net2
*229 net20
*230 net21
*231 net22
*232 net23
*233 net24
*234 net25
*235 net26
*236 net27
*237 net28
*238 net29
*239 net3
*240 net4
*241 net5
*242 net6
*243 net7
*244 net8
*245 net9
*246 FILLER_0_109
*247 FILLER_0_113
*248 FILLER_0_125
*249 FILLER_0_129
*250 FILLER_0_15
*251 FILLER_0_27
*252 FILLER_0_29
*253 FILLER_0_3
*254 FILLER_0_41
*255 FILLER_0_57
*256 FILLER_0_78
*257 FILLER_0_85
*258 FILLER_0_97
*259 FILLER_10_129
*260 FILLER_10_15
*261 FILLER_10_22
*262 FILLER_10_3
*263 FILLER_10_7
*264 FILLER_10_70
*265 FILLER_10_83
*266 FILLER_10_92
*267 FILLER_11_101
*268 FILLER_11_110
*269 FILLER_11_113
*270 FILLER_11_119
*271 FILLER_11_129
*272 FILLER_11_29
*273 FILLER_11_3
*274 FILLER_11_54
*275 FILLER_11_57
*276 FILLER_11_69
*277 FILLER_11_7
*278 FILLER_11_81
*279 FILLER_11_93
*280 FILLER_12_103
*281 FILLER_12_109
*282 FILLER_12_113
*283 FILLER_12_121
*284 FILLER_12_27
*285 FILLER_12_29
*286 FILLER_12_3
*287 FILLER_12_37
*288 FILLER_12_43
*289 FILLER_12_55
*290 FILLER_12_63
*291 FILLER_12_75
*292 FILLER_12_83
*293 FILLER_12_85
*294 FILLER_12_91
*295 FILLER_13_100
*296 FILLER_13_107
*297 FILLER_13_111
*298 FILLER_13_128
*299 FILLER_13_3
*300 FILLER_13_35
*301 FILLER_13_42
*302 FILLER_13_65
*303 FILLER_13_69
*304 FILLER_13_77
*305 FILLER_13_92
*306 FILLER_14_128
*307 FILLER_14_3
*308 FILLER_14_32
*309 FILLER_14_52
*310 FILLER_14_68
*311 FILLER_14_72
*312 FILLER_15_101
*313 FILLER_15_109
*314 FILLER_15_128
*315 FILLER_15_27
*316 FILLER_15_3
*317 FILLER_15_39
*318 FILLER_15_45
*319 FILLER_15_54
*320 FILLER_15_57
*321 FILLER_15_64
*322 FILLER_15_72
*323 FILLER_15_79
*324 FILLER_15_94
*325 FILLER_16_105
*326 FILLER_16_117
*327 FILLER_16_15
*328 FILLER_16_27
*329 FILLER_16_29
*330 FILLER_16_3
*331 FILLER_16_43
*332 FILLER_16_49
*333 FILLER_16_54
*334 FILLER_16_66
*335 FILLER_16_74
*336 FILLER_16_81
*337 FILLER_16_85
*338 FILLER_16_89
*339 FILLER_16_93
*340 FILLER_17_105
*341 FILLER_17_111
*342 FILLER_17_125
*343 FILLER_17_129
*344 FILLER_17_15
*345 FILLER_17_3
*346 FILLER_17_36
*347 FILLER_17_40
*348 FILLER_17_54
*349 FILLER_17_60
*350 FILLER_17_72
*351 FILLER_17_81
*352 FILLER_17_85
*353 FILLER_17_93
*354 FILLER_18_117
*355 FILLER_18_129
*356 FILLER_18_15
*357 FILLER_18_29
*358 FILLER_18_3
*359 FILLER_18_41
*360 FILLER_18_56
*361 FILLER_18_60
*362 FILLER_18_64
*363 FILLER_18_82
*364 FILLER_18_95
*365 FILLER_19_107
*366 FILLER_19_111
*367 FILLER_19_113
*368 FILLER_19_125
*369 FILLER_19_129
*370 FILLER_19_15
*371 FILLER_19_23
*372 FILLER_19_3
*373 FILLER_19_79
*374 FILLER_19_93
*375 FILLER_1_108
*376 FILLER_1_113
*377 FILLER_1_125
*378 FILLER_1_129
*379 FILLER_1_15
*380 FILLER_1_27
*381 FILLER_1_3
*382 FILLER_1_39
*383 FILLER_1_45
*384 FILLER_1_57
*385 FILLER_1_62
*386 FILLER_1_70
*387 FILLER_1_74
*388 FILLER_1_96
*389 FILLER_20_109
*390 FILLER_20_121
*391 FILLER_20_129
*392 FILLER_20_15
*393 FILLER_20_27
*394 FILLER_20_29
*395 FILLER_20_3
*396 FILLER_20_36
*397 FILLER_20_48
*398 FILLER_20_61
*399 FILLER_20_82
*400 FILLER_20_85
*401 FILLER_20_89
*402 FILLER_20_97
*403 FILLER_21_103
*404 FILLER_21_111
*405 FILLER_21_113
*406 FILLER_21_125
*407 FILLER_21_129
*408 FILLER_21_15
*409 FILLER_21_27
*410 FILLER_21_29
*411 FILLER_21_3
*412 FILLER_21_41
*413 FILLER_21_48
*414 FILLER_21_55
*415 FILLER_21_57
*416 FILLER_21_62
*417 FILLER_21_69
*418 FILLER_21_82
*419 FILLER_21_92
*420 FILLER_2_105
*421 FILLER_2_117
*422 FILLER_2_125
*423 FILLER_2_15
*424 FILLER_2_27
*425 FILLER_2_29
*426 FILLER_2_3
*427 FILLER_2_35
*428 FILLER_2_66
*429 FILLER_2_74
*430 FILLER_2_80
*431 FILLER_3_107
*432 FILLER_3_111
*433 FILLER_3_113
*434 FILLER_3_125
*435 FILLER_3_129
*436 FILLER_3_15
*437 FILLER_3_27
*438 FILLER_3_3
*439 FILLER_3_57
*440 FILLER_3_69
*441 FILLER_3_73
*442 FILLER_3_86
*443 FILLER_4_118
*444 FILLER_4_123
*445 FILLER_4_129
*446 FILLER_4_17
*447 FILLER_4_25
*448 FILLER_4_3
*449 FILLER_4_32
*450 FILLER_4_42
*451 FILLER_4_48
*452 FILLER_4_54
*453 FILLER_4_62
*454 FILLER_4_70
*455 FILLER_4_83
*456 FILLER_4_85
*457 FILLER_4_89
*458 FILLER_4_9
*459 FILLER_5_119
*460 FILLER_5_129
*461 FILLER_5_3
*462 FILLER_5_57
*463 FILLER_5_69
*464 FILLER_5_7
*465 FILLER_5_81
*466 FILLER_6_127
*467 FILLER_6_25
*468 FILLER_6_3
*469 FILLER_6_68
*470 FILLER_6_76
*471 FILLER_6_91
*472 FILLER_7_111
*473 FILLER_7_113
*474 FILLER_7_117
*475 FILLER_7_127
*476 FILLER_7_29
*477 FILLER_7_37
*478 FILLER_7_55
*479 FILLER_7_65
*480 FILLER_7_71
*481 FILLER_8_10
*482 FILLER_8_106
*483 FILLER_8_129
*484 FILLER_8_16
*485 FILLER_8_22
*486 FILLER_8_29
*487 FILLER_8_57
*488 FILLER_8_6
*489 FILLER_8_83
*490 FILLER_9_106
*491 FILLER_9_111
*492 FILLER_9_125
*493 FILLER_9_129
*494 FILLER_9_15
*495 FILLER_9_27
*496 FILLER_9_3
*497 FILLER_9_57
*498 FILLER_9_63
*499 FILLER_9_94
*500 PHY_EDGE_ROW_0_Left_22
*501 PHY_EDGE_ROW_0_Right_0
*502 PHY_EDGE_ROW_10_Left_32
*503 PHY_EDGE_ROW_10_Right_10
*504 PHY_EDGE_ROW_11_Left_33
*505 PHY_EDGE_ROW_11_Right_11
*506 PHY_EDGE_ROW_12_Left_34
*507 PHY_EDGE_ROW_12_Right_12
*508 PHY_EDGE_ROW_13_Left_35
*509 PHY_EDGE_ROW_13_Right_13
*510 PHY_EDGE_ROW_14_Left_36
*511 PHY_EDGE_ROW_14_Right_14
*512 PHY_EDGE_ROW_15_Left_37
*513 PHY_EDGE_ROW_15_Right_15
*514 PHY_EDGE_ROW_16_Left_38
*515 PHY_EDGE_ROW_16_Right_16
*516 PHY_EDGE_ROW_17_Left_39
*517 PHY_EDGE_ROW_17_Right_17
*518 PHY_EDGE_ROW_18_Left_40
*519 PHY_EDGE_ROW_18_Right_18
*520 PHY_EDGE_ROW_19_Left_41
*521 PHY_EDGE_ROW_19_Right_19
*522 PHY_EDGE_ROW_1_Left_23
*523 PHY_EDGE_ROW_1_Right_1
*524 PHY_EDGE_ROW_20_Left_42
*525 PHY_EDGE_ROW_20_Right_20
*526 PHY_EDGE_ROW_21_Left_43
*527 PHY_EDGE_ROW_21_Right_21
*528 PHY_EDGE_ROW_2_Left_24
*529 PHY_EDGE_ROW_2_Right_2
*530 PHY_EDGE_ROW_3_Left_25
*531 PHY_EDGE_ROW_3_Right_3
*532 PHY_EDGE_ROW_4_Left_26
*533 PHY_EDGE_ROW_4_Right_4
*534 PHY_EDGE_ROW_5_Left_27
*535 PHY_EDGE_ROW_5_Right_5
*536 PHY_EDGE_ROW_6_Left_28
*537 PHY_EDGE_ROW_6_Right_6
*538 PHY_EDGE_ROW_7_Left_29
*539 PHY_EDGE_ROW_7_Right_7
*540 PHY_EDGE_ROW_8_Left_30
*541 PHY_EDGE_ROW_8_Right_8
*542 PHY_EDGE_ROW_9_Left_31
*543 PHY_EDGE_ROW_9_Right_9
*544 TAP_TAPCELL_ROW_0_44
*545 TAP_TAPCELL_ROW_0_45
*546 TAP_TAPCELL_ROW_0_46
*547 TAP_TAPCELL_ROW_0_47
*548 TAP_TAPCELL_ROW_10_66
*549 TAP_TAPCELL_ROW_10_67
*550 TAP_TAPCELL_ROW_11_68
*551 TAP_TAPCELL_ROW_11_69
*552 TAP_TAPCELL_ROW_12_70
*553 TAP_TAPCELL_ROW_12_71
*554 TAP_TAPCELL_ROW_13_72
*555 TAP_TAPCELL_ROW_13_73
*556 TAP_TAPCELL_ROW_14_74
*557 TAP_TAPCELL_ROW_14_75
*558 TAP_TAPCELL_ROW_15_76
*559 TAP_TAPCELL_ROW_15_77
*560 TAP_TAPCELL_ROW_16_78
*561 TAP_TAPCELL_ROW_16_79
*562 TAP_TAPCELL_ROW_17_80
*563 TAP_TAPCELL_ROW_17_81
*564 TAP_TAPCELL_ROW_18_82
*565 TAP_TAPCELL_ROW_18_83
*566 TAP_TAPCELL_ROW_19_84
*567 TAP_TAPCELL_ROW_19_85
*568 TAP_TAPCELL_ROW_1_48
*569 TAP_TAPCELL_ROW_1_49
*570 TAP_TAPCELL_ROW_20_86
*571 TAP_TAPCELL_ROW_20_87
*572 TAP_TAPCELL_ROW_21_88
*573 TAP_TAPCELL_ROW_21_89
*574 TAP_TAPCELL_ROW_21_90
*575 TAP_TAPCELL_ROW_21_91
*576 TAP_TAPCELL_ROW_2_50
*577 TAP_TAPCELL_ROW_2_51
*578 TAP_TAPCELL_ROW_3_52
*579 TAP_TAPCELL_ROW_3_53
*580 TAP_TAPCELL_ROW_4_54
*581 TAP_TAPCELL_ROW_4_55
*582 TAP_TAPCELL_ROW_5_56
*583 TAP_TAPCELL_ROW_5_57
*584 TAP_TAPCELL_ROW_6_58
*585 TAP_TAPCELL_ROW_6_59
*586 TAP_TAPCELL_ROW_7_60
*587 TAP_TAPCELL_ROW_7_61
*588 TAP_TAPCELL_ROW_8_62
*589 TAP_TAPCELL_ROW_8_63
*590 TAP_TAPCELL_ROW_9_64
*591 TAP_TAPCELL_ROW_9_65
*592 _176_
*593 _177_
*594 _178_
*595 _179_
*596 _180_
*597 _181_
*598 _182_
*599 _183_
*600 _184_
*601 _185_
*602 _186_
*603 _187_
*604 _188_
*605 _189_
*606 _190_
*607 _191_
*608 _192_
*609 _193_
*610 _194_
*611 _195_
*612 _196_
*613 _197_
*614 _198_
*615 _199_
*616 _200_
*617 _201_
*618 _202_
*619 _203_
*620 _204_
*621 _205_
*622 _206_
*623 _207_
*624 _208_
*625 _209_
*626 _210_
*627 _211_
*628 _212_
*629 _213_
*630 _214_
*631 _215_
*632 _216_
*633 _217_
*634 _218_
*635 _219_
*636 _220_
*637 _221_
*638 _222_
*639 _223_
*640 _224_
*641 _225_
*642 _226_
*643 _227_
*644 _228_
*645 _229_
*646 _230_
*647 _231_
*648 _232_
*649 _233_
*650 _234_
*651 _235_
*652 _236_
*653 _237_
*654 _238_
*655 _239_
*656 _240_
*657 _241_
*658 _242_
*659 _243_
*660 _244_
*661 _245_
*662 _246_
*663 _247_
*664 _248_
*665 _249_
*666 _250_
*667 _251_
*668 _252_
*669 _253_
*670 _254_
*671 _255_
*672 _256_
*673 _257_
*674 _258_
*675 _259_
*676 _260_
*677 _261_
*678 _262_
*679 _263_
*680 _264_
*681 _265_
*682 _266_
*683 _267_
*684 _268_
*685 _269_
*686 _270_
*687 _271_
*688 _272_
*689 _273_
*690 _274_
*691 _275_
*692 _276_
*693 _277_
*694 _278_
*695 _279_
*696 _280_
*697 _281_
*698 _282_
*699 _283_
*700 _284_
*701 _285_
*702 _286_
*703 _287_
*704 _288_
*705 _289_
*706 _290_
*707 _291_
*708 _292_
*709 _293_
*710 _294_
*711 _295_
*712 _296_
*713 _297_
*714 _298_
*715 _299_
*716 _300_
*717 _301_
*718 _302_
*719 _303_
*720 _304_
*721 _305_
*722 _306_
*723 _307_
*724 _308_
*725 _309_
*726 _310_
*727 _311_
*728 _312_
*729 _313_
*730 _314_
*731 _315_
*732 _316_
*733 _317_
*734 _318_
*735 _319_
*736 _320_
*737 _321_
*738 _322_
*739 _323_
*740 _324_
*741 _325_
*742 _326_
*743 _327_
*744 _328_
*745 _329_
*746 _330_
*747 _331_
*748 _332_
*749 _333_
*750 _334_
*751 _335_
*752 _336_
*753 _337_
*754 _338_
*755 _339_
*756 _340_
*757 _341_
*758 _342_
*759 _343_
*760 _344_
*761 _345_
*762 _346_
*763 _347_
*764 _348_
*765 _349_
*766 _350_
*767 _351_
*768 _352_
*769 _353_
*770 _354_
*771 _355_
*772 _356_
*773 _357_
*774 _358_
*775 _359_
*776 _360_
*777 _361_
*778 _362_
*779 _363_
*780 _364_
*781 _365_
*782 _366_
*783 _367_
*784 _368_
*785 clkbuf_0_clk
*786 clkbuf_1_0__f_clk
*787 clkbuf_1_1__f_clk
*788 clkload0
*789 clone4
*790 fanout19
*791 fanout20
*792 fanout21
*793 fanout22
*794 input1
*795 input10
*796 input11
*797 input12
*798 input13
*799 input14
*800 input15
*801 input16
*802 input17
*803 input2
*804 input3
*805 input4
*806 input5
*807 input6
*808 input7
*809 input8
*810 input9
*811 output18
*812 rebuffer1
*813 rebuffer2
*814 rebuffer3
*815 rebuffer5
*816 rebuffer6
*817 rebuffer7

*PORTS
clk I
out O
psc[0] I
psc[10] I
psc[11] I
psc[12] I
psc[13] I
psc[14] I
psc[15] I
psc[1] I
psc[2] I
psc[3] I
psc[4] I
psc[5] I
psc[6] I
psc[7] I
psc[8] I
psc[9] I
rst I

*D_NET *3 0.00760614
*CONN
*P clk I
*I *785:A I *D sky130_fd_sc_hd__clkbuf_16
*CAP
1 clk 0.00325763
2 *785:A 0
3 *3:11 0.00325763
4 *3:11 *744:B1_N 0
5 *3:11 *38:12 0.000114504
6 *3:11 *112:18 9.39159e-05
7 *3:11 *136:10 0
8 *3:11 *160:10 8.16149e-05
9 *3:11 *166:10 0.000100605
10 *3:11 *194:27 0.000240612
11 *3:11 *230:100 0.000459638
*RES
1 clk *3:11 43.2395 
2 *3:11 *785:A 23 
*END

*D_NET *4 0.00132359
*CONN
*P out O
*I *811:X O *D sky130_fd_sc_hd__buf_2
*CAP
1 out 0.000619769
2 *811:X 0.000619769
3 out *11:9 0
4 out *38:12 0
5 out *39:8 0
6 out *242:31 8.4047e-05
*RES
1 *811:X out 49.9107 
*END

*D_NET *5 0.000781948
*CONN
*P psc[0] I
*I *794:A I *D sky130_fd_sc_hd__clkbuf_1
*CAP
1 psc[0] 0.000272881
2 *794:A 0
3 *5:11 0.000272881
4 *5:11 *637:A1 3.3123e-05
5 *5:11 *810:A 7.42383e-05
6 *5:11 *12:11 6.91091e-05
7 *5:11 *69:14 4.09412e-06
8 *5:11 *217:8 5.56203e-05
*RES
1 psc[0] *5:11 27.1624 
2 *5:11 *794:A 23 
*END

*D_NET *6 0.000984227
*CONN
*P psc[10] I
*I *803:A I *D sky130_fd_sc_hd__buf_1
*CAP
1 psc[10] 0.000492114
2 *803:A 0.000492114
3 *803:A *804:A 0
*RES
1 psc[10] *803:A 48.875 
*END

*D_NET *7 0.00113958
*CONN
*P psc[11] I
*I *804:A I *D sky130_fd_sc_hd__buf_1
*CAP
1 psc[11] 0.000528892
2 *804:A 0.000528892
3 *804:A *801:A 0
4 *804:A *228:23 8.1796e-05
5 *803:A *804:A 0
*RES
1 psc[11] *804:A 49.6829 
*END

*D_NET *8 0.000792457
*CONN
*P psc[12] I
*I *805:A I *D sky130_fd_sc_hd__buf_1
*CAP
1 psc[12] 0.000396229
2 *805:A 0
3 *8:17 0.000396229
4 *8:17 *704:A 0
5 *8:17 *704:B 0
6 *8:17 *705:A 0
*RES
1 psc[12] *8:17 28.9191 
2 *8:17 *805:A 23 
*END

*D_NET *9 0.000860826
*CONN
*P psc[13] I
*I *806:A I *D sky130_fd_sc_hd__buf_1
*CAP
1 psc[13] 0.000430413
2 *806:A 0.000430413
3 *806:A *807:A 0
*RES
1 psc[13] *806:A 47.4664 
*END

*D_NET *10 0.0011986
*CONN
*P psc[14] I
*I *807:A I *D sky130_fd_sc_hd__dlymetal6s2s_1
*CAP
1 psc[14] 0.000519973
2 *807:A 0.000519973
3 *807:A *11:9 0
4 *807:A *242:8 5.50106e-05
5 *807:A *242:31 0.000103647
6 *806:A *807:A 0
*RES
1 psc[14] *807:A 49.1029 
*END

*D_NET *11 0.00162562
*CONN
*P psc[15] I
*I *808:A I *D sky130_fd_sc_hd__buf_1
*CAP
1 psc[15] 0.000609938
2 *808:A 0
3 *11:9 0.000609938
4 *11:9 *654:B 0.000137651
5 *11:9 *38:12 6.68107e-05
6 *11:9 *86:8 0
7 *11:9 *206:29 4.21594e-06
8 *11:9 *234:24 0.000137651
9 *11:9 *243:19 5.94125e-05
10 out *11:9 0
11 *807:A *11:9 0
*RES
1 psc[15] *11:9 28.4436 
2 *11:9 *808:A 23 
*END

*D_NET *12 0.00110581
*CONN
*P psc[1] I
*I *809:A I *D sky130_fd_sc_hd__buf_6
*CAP
1 psc[1] 0.000336408
2 *809:A 0
3 *12:11 0.000336408
4 *12:11 *810:A 0
5 *12:11 *14:13 0.000155987
6 *12:11 *66:19 5.05367e-05
7 *12:11 *69:14 0.000157357
8 *5:11 *12:11 6.91091e-05
*RES
1 psc[1] *12:11 28.3047 
2 *12:11 *809:A 23 
*END

*D_NET *13 0.000570698
*CONN
*P psc[2] I
*I *810:A I *D sky130_fd_sc_hd__clkbuf_1
*CAP
1 psc[2] 0.00024823
2 *810:A 0.00024823
3 *810:A *201:75 0
4 *5:11 *810:A 7.42383e-05
5 *12:11 *810:A 0
*RES
1 psc[2] *810:A 47.2507 
*END

*D_NET *14 0.00134156
*CONN
*P psc[3] I
*I *795:A I *D sky130_fd_sc_hd__buf_1
*CAP
1 psc[3] 0.000421475
2 *795:A 0
3 *14:13 0.000421475
4 *14:13 *635:A2 0.000264559
5 *14:13 *66:19 7.80612e-05
6 *12:11 *14:13 0.000155987
*RES
1 psc[3] *14:13 28.3491 
2 *14:13 *795:A 23 
*END

*D_NET *15 0.0011102
*CONN
*P psc[4] I
*I *796:A I *D sky130_fd_sc_hd__buf_6
*CAP
1 psc[4] 0.000537323
2 *796:A 0.000537323
3 *796:A *797:A 0
4 *796:A *219:12 6.17437e-06
5 *796:A *223:10 2.93747e-05
*RES
1 psc[4] *796:A 49.2064 
*END

*D_NET *16 0.00120224
*CONN
*P psc[5] I
*I *797:A I *D sky130_fd_sc_hd__buf_1
*CAP
1 psc[5] 0.00055103
2 *797:A 0.00055103
3 *797:A *19:9 0
4 *797:A *221:38 0.00010018
5 *796:A *797:A 0
*RES
1 psc[5] *797:A 49.9729 
*END

*D_NET *17 0.00106705
*CONN
*P psc[6] I
*I *798:A I *D sky130_fd_sc_hd__buf_6
*CAP
1 psc[6] 0.000533527
2 *798:A 0.000533527
3 *798:A *799:A 0
4 *798:A *19:9 0
*RES
1 psc[6] *798:A 49.2064 
*END

*D_NET *18 0.00102566
*CONN
*P psc[7] I
*I *799:A I *D sky130_fd_sc_hd__buf_1
*CAP
1 psc[7] 0.000510976
2 *799:A 0.000510976
3 *799:A *801:A 0
4 *799:A *222:10 3.7122e-06
5 *798:A *799:A 0
*RES
1 psc[7] *799:A 48.73 
*END

*D_NET *19 0.00140217
*CONN
*P psc[8] I
*I *800:A I *D sky130_fd_sc_hd__clkbuf_2
*CAP
1 psc[8] 0.00060691
2 *800:A 0
3 *19:9 0.00060691
4 *19:9 *221:16 3.22879e-05
5 *19:9 *221:38 0.000156058
6 *797:A *19:9 0
7 *798:A *19:9 0
*RES
1 psc[8] *19:9 28.2364 
2 *19:9 *800:A 23 
*END

*D_NET *20 0.0010265
*CONN
*P psc[9] I
*I *801:A I *D sky130_fd_sc_hd__clkbuf_1
*CAP
1 psc[9] 0.000497108
2 *801:A 0.000497108
3 *801:A *228:23 3.22879e-05
4 *799:A *801:A 0
5 *804:A *801:A 0
*RES
1 psc[9] *801:A 48.73 
*END

*D_NET *21 0.000388701
*CONN
*P rst I
*I *802:A I *D sky130_fd_sc_hd__buf_1
*CAP
1 rst 0.000194351
2 *802:A 0.000194351
*RES
1 rst *802:A 46.9931 
*END

*D_NET *22 0.000443371
*CONN
*I *769:D I *D sky130_fd_sc_hd__dfrtp_2
*I *671:X O *D sky130_fd_sc_hd__and2_4
*CAP
1 *769:D 0
2 *671:X 0.000104348
3 *22:10 0.000104348
4 *22:10 *671:A 1.01436e-05
5 *22:10 *210:36 9.52573e-05
6 *22:10 *230:6 2.93845e-05
7 *22:10 *237:20 9.98891e-05
*RES
1 *671:X *22:10 41.2314 
2 *22:10 *769:D 38 
*END

*D_NET *23 0.00111576
*CONN
*I *779:D I *D sky130_fd_sc_hd__dfrtp_4
*I *700:X O *D sky130_fd_sc_hd__and3_1
*CAP
1 *779:D 0
2 *700:X 0.000342192
3 *23:10 0.000342192
4 *23:10 *779:CLK 0
5 *23:10 *120:10 8.4047e-05
6 *23:10 *121:10 0.000181925
7 *23:10 *202:59 8.16253e-05
8 *23:10 *216:10 4.31366e-05
9 *23:10 *216:45 4.06408e-05
*RES
1 *700:X *23:10 44.7736 
2 *23:10 *779:D 38 
*END

*D_NET *24 0.00069754
*CONN
*I *780:D I *D sky130_fd_sc_hd__dfrtp_2
*I *703:X O *D sky130_fd_sc_hd__and3b_1
*CAP
1 *780:D 0.000109999
2 *703:X 6.34394e-05
3 *24:8 0.000173438
4 *780:D *235:30 5.3304e-05
5 *24:8 *122:10 9.98891e-05
6 *24:8 *235:40 0.00019747
*RES
1 *703:X *24:8 40.61 
2 *24:8 *780:D 39.5743 
*END

*D_NET *25 0.000426606
*CONN
*I *781:D I *D sky130_fd_sc_hd__dfrtp_2
*I *706:X O *D sky130_fd_sc_hd__and3b_1
*CAP
1 *781:D 0
2 *706:X 0.000149347
3 *25:10 0.000149347
4 *25:10 *782:CLK 4.48568e-05
5 *25:10 *790:A 4.06849e-05
6 *25:10 *235:40 4.23714e-05
*RES
1 *706:X *25:10 41.0036 
2 *25:10 *781:D 38 
*END

*D_NET *26 0.000326784
*CONN
*I *782:D I *D sky130_fd_sc_hd__dfrtp_1
*I *709:X O *D sky130_fd_sc_hd__and3b_1
*CAP
1 *782:D 0
2 *709:X 0.000140446
3 *26:10 0.000140446
4 *26:10 *235:40 4.58924e-05
*RES
1 *709:X *26:10 40.5271 
2 *26:10 *782:D 38 
*END

*D_NET *27 0.00172463
*CONN
*I *783:D I *D sky130_fd_sc_hd__dfrtp_2
*I *712:X O *D sky130_fd_sc_hd__and3b_1
*CAP
1 *783:D 0.000475714
2 *712:X 0.000222188
3 *27:8 0.000697902
4 *783:D *783:CLK 7.53384e-06
5 *783:D *206:10 2.30292e-05
6 *27:8 *54:10 0
7 *27:8 *206:10 0.000166522
8 *27:8 *206:38 0.000131744
9 *27:8 *226:10 0
10 *27:8 *230:111 0
*RES
1 *712:X *27:8 43.075 
2 *27:8 *783:D 46.7207 
*END

*D_NET *28 0.000437734
*CONN
*I *784:D I *D sky130_fd_sc_hd__dfrtp_1
*I *715:X O *D sky130_fd_sc_hd__and3_1
*CAP
1 *784:D 9.603e-05
2 *715:X 6.55146e-05
3 *28:8 0.000161545
4 *784:D *200:77 7.37803e-05
5 *28:8 *130:10 4.08641e-05
6 *28:8 *200:60 0
*RES
1 *715:X *28:8 39.2014 
2 *28:8 *784:D 39.4759 
*END

*D_NET *29 0.00113538
*CONN
*I *770:D I *D sky130_fd_sc_hd__dfrtp_2
*I *673:X O *D sky130_fd_sc_hd__and3_1
*CAP
1 *770:D 0.000249856
2 *673:X 0.000133688
3 *29:8 0.000383544
4 *770:D *770:CLK 0.000102093
5 *29:8 *103:10 5.31444e-05
6 *29:8 *210:36 0.000148412
7 *29:8 *229:81 6.46393e-05
*RES
1 *673:X *29:8 42.0186 
2 *29:8 *770:D 41.3816 
*END

*D_NET *30 0.00052963
*CONN
*I *771:D I *D sky130_fd_sc_hd__dfrtp_1
*I *676:X O *D sky130_fd_sc_hd__and3b_1
*CAP
1 *771:D 0.000128808
2 *676:X 0.000104898
3 *30:8 0.000233706
4 *30:8 *676:C 6.07611e-06
5 *30:8 *679:B 5.61414e-05
6 *30:8 *42:10 0
7 *30:8 *209:14 0
*RES
1 *676:X *30:8 40.2579 
2 *30:8 *771:D 40.0507 
*END

*D_NET *31 0.00087822
*CONN
*I *772:D I *D sky130_fd_sc_hd__dfrtp_2
*I *679:X O *D sky130_fd_sc_hd__and3b_1
*CAP
1 *772:D 3.57804e-05
2 *679:X 0.000300465
3 *31:12 0.000336245
4 *772:D *104:31 2.93747e-05
5 *31:12 *772:CLK 0.000176355
*RES
1 *679:X *31:12 43.5514 
2 *31:12 *772:D 38.6214 
*END

*D_NET *32 0.00093152
*CONN
*I *773:D I *D sky130_fd_sc_hd__dfrtp_4
*I *682:X O *D sky130_fd_sc_hd__and3_1
*CAP
1 *773:D 0
2 *682:X 0.000375151
3 *32:10 0.000375151
4 *32:10 *679:B 2.54046e-05
5 *32:10 *682:C 1.39431e-05
6 *32:10 *200:58 0.000141869
*RES
1 *682:X *32:10 43.3857 
2 *32:10 *773:D 38 
*END

*D_NET *33 0.00127619
*CONN
*I *774:D I *D sky130_fd_sc_hd__dfrtp_2
*I *685:X O *D sky130_fd_sc_hd__and3b_1
*CAP
1 *774:D 0.000107381
2 *685:X 0.0002663
3 *33:10 0.000373682
4 *774:D *683:B 2.13733e-05
5 *774:D *770:CLK 7.15126e-05
6 *774:D *774:RESET_B 0.000178517
7 *33:10 *685:B 4.96675e-06
8 *33:10 *45:10 8.62876e-05
9 *33:10 *198:31 5.3304e-05
10 *33:10 *200:12 1.22803e-05
11 *33:10 *211:51 4.1817e-05
12 *33:10 *211:62 4.6318e-06
13 *33:10 *231:54 5.41385e-05
*RES
1 *685:X *33:10 42.0807 
2 *33:10 *774:D 40.5271 
*END

*D_NET *34 0.000628217
*CONN
*I *775:D I *D sky130_fd_sc_hd__dfrtp_1
*I *688:X O *D sky130_fd_sc_hd__and3b_1
*CAP
1 *775:D 4.01691e-05
2 *688:X 5.57954e-05
3 *34:8 9.59645e-05
4 *775:D *775:CLK 0.000139346
5 *775:D *235:75 7.73389e-05
6 *34:8 *687:B 0.000110922
7 *34:8 *688:C 0.000108681
*RES
1 *688:X *34:8 39.5536 
2 *34:8 *775:D 39.5743 
*END

*D_NET *35 0.00127275
*CONN
*I *776:D I *D sky130_fd_sc_hd__dfrtp_2
*I *691:X O *D sky130_fd_sc_hd__and3b_1
*CAP
1 *776:D 0
2 *691:X 0.000335151
3 *35:10 0.000335151
4 *35:10 *689:A 0.000164282
5 *35:10 *97:40 0
6 *35:10 *112:26 0.000185755
7 *35:10 *214:10 0.000153218
8 *35:10 *232:8 9.91895e-05
*RES
1 *691:X *35:10 44.4214 
2 *35:10 *776:D 38 
*END

*D_NET *36 0.00131422
*CONN
*I *777:D I *D sky130_fd_sc_hd__dfrtp_1
*I *694:X O *D sky130_fd_sc_hd__and3b_1
*CAP
1 *777:D 5.7282e-05
2 *694:X 0.000325325
3 *36:14 0.000382607
4 *777:D *230:24 9.99383e-05
5 *777:D *235:20 6.12127e-05
6 *777:D *235:30 7.51453e-06
7 *36:14 *694:C 2.93431e-05
8 *36:14 *116:14 0
9 *36:14 *117:10 0.000244526
10 *36:14 *177:23 3.04952e-05
11 *36:14 *199:82 0
12 *36:14 *215:28 7.5972e-05
*RES
1 *694:X *36:14 44.1107 
2 *36:14 *777:D 40.0507 
*END

*D_NET *37 0.000196704
*CONN
*I *778:D I *D sky130_fd_sc_hd__dfrtp_2
*I *697:X O *D sky130_fd_sc_hd__and3b_1
*CAP
1 *778:D 0
2 *697:X 9.8352e-05
3 *37:8 9.8352e-05
4 *37:8 *199:54 0
5 *37:8 *202:16 0
*RES
1 *697:X *37:8 39.5536 
2 *37:8 *778:D 38 
*END

*D_NET *38 0.00559139
*CONN
*I *768:D I *D sky130_fd_sc_hd__dfrtp_1
*I *751:X O *D sky130_fd_sc_hd__o22a_1
*CAP
1 *768:D 0
2 *751:X 5.67095e-05
3 *38:12 0.00126968
4 *38:8 0.00132639
5 *38:8 *751:B2 1.59094e-05
6 *38:12 *717:C1 1.34354e-05
7 *38:12 *47:10 0.000110922
8 *38:12 *85:8 1.34354e-05
9 *38:12 *86:16 6.16531e-05
10 *38:12 *87:14 0
11 *38:12 *88:14 0
12 *38:12 *132:10 1.34354e-05
13 *38:12 *134:10 0.00034112
14 *38:12 *135:8 8.51329e-05
15 *38:12 *136:10 0.000922992
16 *38:12 *161:14 0
17 *38:12 *178:8 8.97299e-05
18 *38:12 *205:27 0
19 *38:12 *205:40 0.000512078
20 *38:12 *207:30 0.000246748
21 *38:12 *207:36 0
22 *38:12 *230:100 0.00017288
23 *38:12 *234:24 7.55698e-05
24 *38:12 *242:31 0
25 *38:12 *242:42 0
26 *38:12 *243:19 8.22585e-05
27 out *38:12 0
28 *3:11 *38:12 0.000114504
29 *11:9 *38:12 6.68107e-05
*RES
1 *751:X *38:8 38.6214 
2 *38:8 *38:12 48.5986 
3 *38:12 *768:D 23 
*END

*D_NET *39 0.000312468
*CONN
*I *768:RESET_B I *D sky130_fd_sc_hd__dfrtp_1
*I *606:Y O *D sky130_fd_sc_hd__inv_2
*CAP
1 *768:RESET_B 0
2 *606:Y 0.000143527
3 *39:8 0.000143527
4 *39:8 *226:10 2.5415e-05
5 out *39:8 0
*RES
1 *606:Y *39:8 40.61 
2 *39:8 *768:RESET_B 15 
*END

*D_NET *40 0.000389647
*CONN
*I *769:RESET_B I *D sky130_fd_sc_hd__dfrtp_2
*I *752:Y O *D sky130_fd_sc_hd__inv_2
*CAP
1 *769:RESET_B 0.000173871
2 *752:Y 0.000173871
3 *769:RESET_B *201:10 4.19048e-05
*RES
1 *752:Y *769:RESET_B 25.9311 
*END

*D_NET *41 0.00133944
*CONN
*I *770:RESET_B I *D sky130_fd_sc_hd__dfrtp_2
*I *753:Y O *D sky130_fd_sc_hd__inv_2
*CAP
1 *770:RESET_B 9.86089e-05
2 *753:Y 0.00034224
3 *41:8 0.000440849
4 *770:RESET_B *208:8 3.06691e-05
5 *41:8 *225:23 0.000227376
6 *41:8 *230:130 0.000199701
*RES
1 *753:Y *41:8 46.5964 
2 *41:8 *770:RESET_B 16.5018 
*END

*D_NET *42 0.00161578
*CONN
*I *771:RESET_B I *D sky130_fd_sc_hd__dfrtp_1
*I *754:Y O *D sky130_fd_sc_hd__inv_2
*CAP
1 *771:RESET_B 0
2 *754:Y 0.000555252
3 *42:10 0.000555252
4 *42:10 *104:31 4.16764e-05
5 *42:10 *107:14 0.000442771
6 *42:10 *209:14 2.08324e-05
7 *30:8 *42:10 0
*RES
1 *754:Y *42:10 47.0729 
2 *42:10 *771:RESET_B 15 
*END

*D_NET *43 0.000541401
*CONN
*I *772:RESET_B I *D sky130_fd_sc_hd__dfrtp_2
*I *755:Y O *D sky130_fd_sc_hd__inv_2
*CAP
1 *772:RESET_B 0.000147719
2 *755:Y 7.59234e-05
3 *43:8 0.000223642
4 *772:RESET_B *210:8 3.84966e-05
5 *43:8 *225:23 5.56203e-05
*RES
1 *755:Y *43:8 39.5536 
2 *43:8 *772:RESET_B 17.4546 
*END

*D_NET *44 0.000301248
*CONN
*I *773:RESET_B I *D sky130_fd_sc_hd__dfrtp_4
*I *756:Y O *D sky130_fd_sc_hd__inv_2
*CAP
1 *773:RESET_B 0
2 *756:Y 0.000150624
3 *44:8 0.000150624
4 *44:8 *104:31 0
*RES
1 *756:Y *44:8 40.61 
2 *44:8 *773:RESET_B 15 
*END

*D_NET *45 0.00183525
*CONN
*I *774:RESET_B I *D sky130_fd_sc_hd__dfrtp_2
*I *757:Y O *D sky130_fd_sc_hd__inv_2
*CAP
1 *774:RESET_B 0.000265596
2 *757:Y 0.000206214
3 *45:10 0.00047181
4 *774:RESET_B *770:CLK 0.000106488
5 *774:RESET_B *212:10 0.00013404
6 *45:10 *111:8 8.4047e-05
7 *45:10 *200:12 8.62783e-05
8 *45:10 *211:36 0.00010018
9 *45:10 *211:51 0
10 *45:10 *231:54 5.26101e-05
11 *45:10 *235:87 6.31866e-05
12 *774:D *774:RESET_B 0.000178517
13 *33:10 *45:10 8.62876e-05
*RES
1 *757:Y *45:10 43.1164 
2 *45:10 *774:RESET_B 20.0025 
*END

*D_NET *46 0.000359165
*CONN
*I *775:RESET_B I *D sky130_fd_sc_hd__dfrtp_1
*I *758:Y O *D sky130_fd_sc_hd__inv_2
*CAP
1 *775:RESET_B 0.000118042
2 *758:Y 0.000118042
3 *775:RESET_B *235:102 0.00012308
*RES
1 *758:Y *775:RESET_B 25.4546 
*END

*D_NET *47 0.000458992
*CONN
*I *776:RESET_B I *D sky130_fd_sc_hd__dfrtp_2
*I *759:Y O *D sky130_fd_sc_hd__inv_2
*CAP
1 *776:RESET_B 0
2 *759:Y 9.9004e-05
3 *47:10 9.9004e-05
4 *47:10 *230:100 0.000120687
5 *47:10 *230:111 2.93747e-05
6 *38:12 *47:10 0.000110922
*RES
1 *759:Y *47:10 40.175 
2 *47:10 *776:RESET_B 15 
*END

*D_NET *48 0.000446727
*CONN
*I *777:RESET_B I *D sky130_fd_sc_hd__dfrtp_1
*I *760:Y O *D sky130_fd_sc_hd__inv_2
*CAP
1 *777:RESET_B 0.000120503
2 *760:Y 0.000120503
3 *777:RESET_B *215:6 1.72e-05
4 *777:RESET_B *215:16 3.08719e-06
5 *777:RESET_B *230:14 0.000185434
*RES
1 *760:Y *777:RESET_B 25.4546 
*END

*D_NET *49 0.00108831
*CONN
*I *778:RESET_B I *D sky130_fd_sc_hd__dfrtp_2
*I *761:Y O *D sky130_fd_sc_hd__inv_2
*CAP
1 *778:RESET_B 0.000241621
2 *761:Y 7.82767e-05
3 *49:8 0.000319897
4 *778:RESET_B *721:A1 1.3523e-05
5 *778:RESET_B *721:B2 3.23857e-06
6 *778:RESET_B *120:10 4.70852e-05
7 *778:RESET_B *202:59 0.00014561
8 *778:RESET_B *202:87 5.91503e-05
9 *778:RESET_B *230:77 5.73309e-05
10 *49:8 *216:10 0
11 *49:8 *230:77 0.0001133
12 *49:8 *235:68 9.28078e-06
*RES
1 *761:Y *49:8 39.5536 
2 *49:8 *778:RESET_B 20.3339 
*END

*D_NET *50 0.00116977
*CONN
*I *779:RESET_B I *D sky130_fd_sc_hd__dfrtp_4
*I *762:Y O *D sky130_fd_sc_hd__inv_2
*CAP
1 *779:RESET_B 0.000339631
2 *762:Y 9.79436e-05
3 *50:8 0.000437575
4 *779:RESET_B *779:CLK 9.71501e-05
5 *50:8 *202:63 0.00019747
6 *50:8 *215:63 0
*RES
1 *762:Y *50:8 40.61 
2 *50:8 *779:RESET_B 20.7896 
*END

*D_NET *51 0.000525305
*CONN
*I *780:RESET_B I *D sky130_fd_sc_hd__dfrtp_2
*I *763:Y O *D sky130_fd_sc_hd__inv_2
*CAP
1 *780:RESET_B 0
2 *763:Y 0.000121741
3 *51:10 0.000121741
4 *51:10 *199:19 5.67058e-05
5 *51:10 *199:54 0.000199701
6 *51:10 *230:24 2.5415e-05
*RES
1 *763:Y *51:10 41.2314 
2 *51:10 *780:RESET_B 15 
*END

*D_NET *52 0.000408085
*CONN
*I *781:RESET_B I *D sky130_fd_sc_hd__dfrtp_2
*I *764:Y O *D sky130_fd_sc_hd__inv_2
*CAP
1 *781:RESET_B 0
2 *764:Y 0.000103899
3 *52:10 0.000103899
4 *52:10 *102:31 0.000113153
5 *52:10 *230:32 3.21223e-05
6 *52:10 *240:10 5.50106e-05
*RES
1 *764:Y *52:10 40.175 
2 *52:10 *781:RESET_B 15 
*END

*D_NET *53 0.000903356
*CONN
*I *782:RESET_B I *D sky130_fd_sc_hd__dfrtp_1
*I *765:Y O *D sky130_fd_sc_hd__inv_2
*CAP
1 *782:RESET_B 0.000158278
2 *765:Y 0.000139896
3 *53:10 0.000298175
4 *782:RESET_B *647:A 2.64616e-05
5 *782:RESET_B *205:8 1.14762e-05
6 *53:10 *126:10 0.000191157
7 *53:10 *204:42 1.83564e-05
8 *53:10 *205:14 2.29192e-05
9 *53:10 *205:53 1.36079e-05
10 *53:10 *230:32 2.30292e-05
*RES
1 *765:Y *53:10 41.2314 
2 *53:10 *782:RESET_B 17.4546 
*END

*D_NET *54 0.000330769
*CONN
*I *783:RESET_B I *D sky130_fd_sc_hd__dfrtp_2
*I *766:Y O *D sky130_fd_sc_hd__inv_2
*CAP
1 *783:RESET_B 0
2 *766:Y 0.000137879
3 *54:10 0.000137879
4 *54:10 *200:85 0
5 *54:10 *206:10 0
6 *54:10 *207:18 5.50106e-05
7 *27:8 *54:10 0
*RES
1 *766:Y *54:10 40.175 
2 *54:10 *783:RESET_B 15 
*END

*D_NET *55 0.000390117
*CONN
*I *784:RESET_B I *D sky130_fd_sc_hd__dfrtp_1
*I *767:Y O *D sky130_fd_sc_hd__inv_2
*CAP
1 *784:RESET_B 3.13131e-05
2 *767:Y 0.000123741
3 *55:8 0.000155054
4 *784:RESET_B *207:8 1.19087e-05
5 *55:8 *714:A 2.5415e-05
6 *55:8 *207:18 4.26853e-05
*RES
1 *767:Y *55:8 40.61 
2 *55:8 *784:RESET_B 15.5489 
*END

*D_NET *56 0.00176424
*CONN