*SPEF "ieee 1481-1999"
*DESIGN "freq_psc"
*DATE "18:06:32 Wednesday October 23, 2024"
*VENDOR "The OpenROAD Project"
*PROGRAM "OpenROAD"
*VERSION "edf00dff99f6c40d67a30c0e22a8191c5d2ed9d6"
*DESIGN_FLOW "NAME_SCOPE LOCAL" "PIN_CAP NONE"
*DIVIDER /
*DELIMITER :
*BUS_DELIMITER []
*T_UNIT 1 NS
*C_UNIT 1 PF
*R_UNIT 1 OHM
*L_UNIT 1 HENRY

*NAME_MAP
*3 clk
*4 out
*5 psc[0]
*6 psc[10]
*7 psc[11]
*8 psc[12]
*9 psc[13]
*10 psc[14]
*11 psc[15]
*12 psc[16]
*13 psc[17]
*14 psc[18]
*15 psc[19]
*16 psc[1]
*17 psc[20]
*18 psc[21]
*19 psc[22]
*20 psc[23]
*21 psc[24]
*22 psc[25]
*23 psc[26]
*24 psc[27]
*25 psc[28]
*26 psc[29]
*27 psc[2]
*28 psc[30]
*29 psc[31]
*30 psc[3]
*31 psc[4]
*32 psc[5]
*33 psc[6]
*34 psc[7]
*35 psc[8]
*36 psc[9]
*37 rst
*38 _000_
*39 _001_
*40 _002_
*41 _003_
*42 _004_
*43 _005_
*44 _006_
*45 _007_
*46 _008_
*47 _009_
*48 _010_
*49 _011_
*50 _012_
*51 _013_
*52 _014_
*53 _015_
*54 _016_
*55 _017_
*56 _018_
*57 _019_
*58 _020_
*59 _021_
*60 _022_
*61 _023_
*62 _024_
*63 _025_
*64 _026_
*65 _027_
*66 _028_
*67 _029_
*68 _030_
*69 _031_
*70 _032_
*71 _033_
*72 _034_
*73 _035_
*74 _036_
*75 _037_
*76 _038_
*77 _039_
*78 _040_
*79 _041_
*80 _042_
*81 _043_
*82 _044_
*83 _045_
*84 _046_
*85 _047_
*86 _048_
*87 _049_
*88 _050_
*89 _051_
*90 _052_
*91 _053_
*92 _054_
*93 _055_
*94 _056_
*95 _057_
*96 _058_
*97 _059_
*98 _060_
*99 _061_
*100 _062_
*101 _063_
*102 _064_
*103 _065_
*104 _066_
*105 _067_
*106 _068_
*107 _069_
*108 _070_
*109 _071_
*110 _072_
*111 _073_
*112 _074_
*113 _075_
*114 _076_
*115 _077_
*116 _078_
*117 _079_
*118 _080_
*119 _081_
*120 _082_
*121 _083_
*122 _084_
*123 _085_
*124 _086_
*125 _087_
*126 _088_
*127 _089_
*128 _090_
*129 _091_
*130 _092_
*131 _093_
*132 _094_
*133 _095_
*134 _096_
*135 _097_
*136 _098_
*137 _099_
*138 _100_
*139 _101_
*140 _102_
*141 _103_
*142 _104_
*143 _105_
*144 _106_
*145 _107_
*146 _108_
*147 _109_
*148 _110_
*149 _111_
*150 _112_
*151 _113_
*152 _114_
*153 _115_
*154 _116_
*155 _117_
*156 _118_
*157 _119_
*158 _120_
*159 _121_
*160 _122_
*161 _123_
*162 _124_
*163 _125_
*164 _126_
*165 _127_
*166 _128_
*167 _129_
*168 _130_
*169 _131_
*170 _132_
*171 _133_
*172 _134_
*173 _135_
*174 _136_
*175 _137_
*176 _138_
*177 _139_
*178 _140_
*179 _141_
*180 _142_
*181 _143_
*182 _144_
*183 _145_
*184 _146_
*185 _147_
*186 _148_
*187 _149_
*188 _150_
*189 _151_
*190 _152_
*191 _153_
*192 _154_
*193 _155_
*194 _156_
*195 _157_
*196 _158_
*197 _159_
*198 _160_
*199 _161_
*200 _162_
*201 _163_
*202 _164_
*203 _165_
*204 _166_
*205 _167_
*206 _168_
*207 _169_
*208 _170_
*209 _171_
*210 _172_
*211 _173_
*212 _174_
*213 _175_
*214 _176_
*215 _177_
*216 _178_
*217 _179_
*218 _180_
*219 _181_
*220 _182_
*221 _183_
*222 _184_
*223 _185_
*224 _186_
*225 _187_
*226 _188_
*227 _189_
*228 _190_
*229 _191_
*230 _192_
*231 _193_
*232 _194_
*233 _195_
*234 _196_
*235 _197_
*236 _198_
*237 _199_
*238 _200_
*239 _201_
*240 _202_
*241 _203_
*242 _204_
*243 _205_
*244 _206_
*245 _207_
*246 _208_
*247 _209_
*248 _210_
*249 _211_
*250 _212_
*251 _213_
*252 _214_
*253 _215_
*254 _216_
*255 _217_
*256 _218_
*257 _219_
*258 _220_
*259 _221_
*260 _222_
*261 _223_
*262 _224_
*263 _225_
*264 _226_
*265 _227_
*266 _228_
*267 _229_
*268 _230_
*269 _231_
*270 _232_
*271 _233_
*272 _234_
*273 _235_
*274 clknet_0_clk
*275 clknet_2_0__leaf_clk
*276 clknet_2_1__leaf_clk
*277 clknet_2_2__leaf_clk
*278 clknet_2_3__leaf_clk
*279 net1
*280 net10
*281 net11
*282 net12
*283 net13
*284 net14
*285 net15
*286 net16
*287 net17
*288 net18
*289 net19
*290 net2
*291 net20
*292 net21
*293 net22
*294 net23
*295 net24
*296 net25
*297 net26
*298 net27
*299 net28
*300 net29
*301 net3
*302 net30
*303 net31
*304 net32
*305 net33
*306 net34
*307 net35
*308 net36
*309 net37
*310 net38
*311 net39
*312 net4
*313 net40
*314 net41
*315 net42
*316 net43
*317 net44
*318 net45
*319 net46
*320 net47
*321 net5
*322 net59
*323 net6
*324 net7
*325 net8
*326 net9
*327 psc_cnt\[0\]
*328 psc_cnt\[10\]
*329 psc_cnt\[11\]
*330 psc_cnt\[12\]
*331 psc_cnt\[13\]
*332 psc_cnt\[14\]
*333 psc_cnt\[15\]
*334 psc_cnt\[16\]
*335 psc_cnt\[17\]
*336 psc_cnt\[18\]
*337 psc_cnt\[19\]
*338 psc_cnt\[1\]
*339 psc_cnt\[20\]
*340 psc_cnt\[21\]
*341 psc_cnt\[22\]
*342 psc_cnt\[23\]
*343 psc_cnt\[24\]
*344 psc_cnt\[25\]
*345 psc_cnt\[26\]
*346 psc_cnt\[27\]
*347 psc_cnt\[28\]
*348 psc_cnt\[29\]
*349 psc_cnt\[2\]
*350 psc_cnt\[30\]
*351 psc_cnt\[31\]
*352 psc_cnt\[3\]
*353 psc_cnt\[4\]
*354 psc_cnt\[5\]
*355 psc_cnt\[6\]
*356 psc_cnt\[7\]
*357 psc_cnt\[8\]
*358 psc_cnt\[9\]
*359 FILLER_0_109
*360 FILLER_0_113
*361 FILLER_0_125
*362 FILLER_0_137
*363 FILLER_0_141
*364 FILLER_0_16
*365 FILLER_0_20
*366 FILLER_0_24
*367 FILLER_0_3
*368 FILLER_0_44
*369 FILLER_0_57
*370 FILLER_0_69
*371 FILLER_0_76
*372 FILLER_0_83
*373 FILLER_0_85
*374 FILLER_0_97
*375 FILLER_10_100
*376 FILLER_10_111
*377 FILLER_10_123
*378 FILLER_10_13
*379 FILLER_10_135
*380 FILLER_10_139
*381 FILLER_10_148
*382 FILLER_10_36
*383 FILLER_10_40
*384 FILLER_10_53
*385 FILLER_10_6
*386 FILLER_10_65
*387 FILLER_10_76
*388 FILLER_11_118
*389 FILLER_11_13
*390 FILLER_11_130
*391 FILLER_11_36
*392 FILLER_11_54
*393 FILLER_11_6
*394 FILLER_11_60
*395 FILLER_11_64
*396 FILLER_11_71
*397 FILLER_11_81
*398 FILLER_11_89
*399 FILLER_12_113
*400 FILLER_12_148
*401 FILLER_12_21
*402 FILLER_12_27
*403 FILLER_12_29
*404 FILLER_12_37
*405 FILLER_12_45
*406 FILLER_12_6
*407 FILLER_12_77
*408 FILLER_12_83
*409 FILLER_12_98
*410 FILLER_13_10
*411 FILLER_13_104
*412 FILLER_13_110
*413 FILLER_13_113
*414 FILLER_13_126
*415 FILLER_13_130
*416 FILLER_13_134
*417 FILLER_13_142
*418 FILLER_13_151
*419 FILLER_13_25
*420 FILLER_13_3
*421 FILLER_13_47
*422 FILLER_13_55
*423 FILLER_13_66
*424 FILLER_13_91
*425 FILLER_14_111
*426 FILLER_14_127
*427 FILLER_14_13
*428 FILLER_14_133
*429 FILLER_14_148
*430 FILLER_14_25
*431 FILLER_14_29
*432 FILLER_14_3
*433 FILLER_14_33
*434 FILLER_14_54
*435 FILLER_14_85
*436 FILLER_15_105
*437 FILLER_15_111
*438 FILLER_15_14
*439 FILLER_15_140
*440 FILLER_15_151
*441 FILLER_15_35
*442 FILLER_15_43
*443 FILLER_15_48
*444 FILLER_15_6
*445 FILLER_15_60
*446 FILLER_15_66
*447 FILLER_15_78
*448 FILLER_15_90
*449 FILLER_16_10
*450 FILLER_16_100
*451 FILLER_16_104
*452 FILLER_16_112
*453 FILLER_16_122
*454 FILLER_16_130
*455 FILLER_16_138
*456 FILLER_16_144
*457 FILLER_16_29
*458 FILLER_16_6
*459 FILLER_16_63
*460 FILLER_16_88
*461 FILLER_17_111
*462 FILLER_17_113
*463 FILLER_17_129
*464 FILLER_17_140
*465 FILLER_17_144
*466 FILLER_17_151
*467 FILLER_17_28
*468 FILLER_17_6
*469 FILLER_17_61
*470 FILLER_17_69
*471 FILLER_17_81
*472 FILLER_17_90
*473 FILLER_18_119
*474 FILLER_18_12
*475 FILLER_18_141
*476 FILLER_18_151
*477 FILLER_18_27
*478 FILLER_18_29
*479 FILLER_18_69
*480 FILLER_18_76
*481 FILLER_18_88
*482 FILLER_19_111
*483 FILLER_19_120
*484 FILLER_19_130
*485 FILLER_19_136
*486 FILLER_19_140
*487 FILLER_19_152
*488 FILLER_19_26
*489 FILLER_19_3
*490 FILLER_19_38
*491 FILLER_19_50
*492 FILLER_19_57
*493 FILLER_19_92
*494 FILLER_19_98
*495 FILLER_1_106
*496 FILLER_1_113
*497 FILLER_1_121
*498 FILLER_1_148
*499 FILLER_1_152
*500 FILLER_1_3
*501 FILLER_1_52
*502 FILLER_1_77
*503 FILLER_1_82
*504 FILLER_1_94
*505 FILLER_20_117
*506 FILLER_20_130
*507 FILLER_20_138
*508 FILLER_20_141
*509 FILLER_20_21
*510 FILLER_20_27
*511 FILLER_20_40
*512 FILLER_20_44
*513 FILLER_20_6
*514 FILLER_20_68
*515 FILLER_20_74
*516 FILLER_20_85
*517 FILLER_21_110
*518 FILLER_21_113
*519 FILLER_21_125
*520 FILLER_21_152
*521 FILLER_21_24
*522 FILLER_21_3
*523 FILLER_21_46
*524 FILLER_21_79
*525 FILLER_21_89
*526 FILLER_21_98
*527 FILLER_22_101
*528 FILLER_22_109
*529 FILLER_22_116
*530 FILLER_22_128
*531 FILLER_22_14
*532 FILLER_22_141
*533 FILLER_22_19
*534 FILLER_22_27
*535 FILLER_22_3
*536 FILLER_22_34
*537 FILLER_22_46
*538 FILLER_22_58
*539 FILLER_22_66
*540 FILLER_22_70
*541 FILLER_22_81
*542 FILLER_22_85
*543 FILLER_22_97
*544 FILLER_23_110
*545 FILLER_23_134
*546 FILLER_23_146
*547 FILLER_23_15
*548 FILLER_23_152
*549 FILLER_23_27
*550 FILLER_23_3
*551 FILLER_23_39
*552 FILLER_23_51
*553 FILLER_23_55
*554 FILLER_23_80
*555 FILLER_23_98
*556 FILLER_24_103
*557 FILLER_24_123
*558 FILLER_24_135
*559 FILLER_24_139
*560 FILLER_24_141
*561 FILLER_24_15
*562 FILLER_24_27
*563 FILLER_24_29
*564 FILLER_24_3
*565 FILLER_24_41
*566 FILLER_24_53
*567 FILLER_24_65
*568 FILLER_24_73
*569 FILLER_24_83
*570 FILLER_25_104
*571 FILLER_25_111
*572 FILLER_25_113
*573 FILLER_25_118
*574 FILLER_25_130
*575 FILLER_25_138
*576 FILLER_25_141
*577 FILLER_25_15
*578 FILLER_25_27
*579 FILLER_25_29
*580 FILLER_25_3
*581 FILLER_25_41
*582 FILLER_25_53
*583 FILLER_25_57
*584 FILLER_25_69
*585 FILLER_25_77
*586 FILLER_25_83
*587 FILLER_25_85
*588 FILLER_25_90
*589 FILLER_2_109
*590 FILLER_2_127
*591 FILLER_2_139
*592 FILLER_2_141
*593 FILLER_2_149
*594 FILLER_2_15
*595 FILLER_2_27
*596 FILLER_2_3
*597 FILLER_2_40
*598 FILLER_2_53
*599 FILLER_2_65
*600 FILLER_2_77
*601 FILLER_2_83
*602 FILLER_2_85
*603 FILLER_2_97
*604 FILLER_3_103
*605 FILLER_3_111
*606 FILLER_3_113
*607 FILLER_3_15
*608 FILLER_3_23
*609 FILLER_3_3
*610 FILLER_3_30
*611 FILLER_3_36
*612 FILLER_3_43
*613 FILLER_3_48
*614 FILLER_3_54
*615 FILLER_3_62
*616 FILLER_3_69
*617 FILLER_3_73
*618 FILLER_3_79
*619 FILLER_4_111
*620 FILLER_4_128
*621 FILLER_4_141
*622 FILLER_4_148
*623 FILLER_4_152
*624 FILLER_4_29
*625 FILLER_4_3
*626 FILLER_4_75
*627 FILLER_4_88
*628 FILLER_4_99
*629 FILLER_5_116
*630 FILLER_5_126
*631 FILLER_5_132
*632 FILLER_5_140
*633 FILLER_5_144
*634 FILLER_5_15
*635 FILLER_5_151
*636 FILLER_5_27
*637 FILLER_5_3
*638 FILLER_5_39
*639 FILLER_5_51
*640 FILLER_5_55
*641 FILLER_5_57
*642 FILLER_5_61
*643 FILLER_5_65
*644 FILLER_5_79
*645 FILLER_6_104
*646 FILLER_6_112
*647 FILLER_6_15
*648 FILLER_6_151
*649 FILLER_6_27
*650 FILLER_6_3
*651 FILLER_6_38
*652 FILLER_6_53
*653 FILLER_6_57
*654 FILLER_6_82
*655 FILLER_6_90
*656 FILLER_7_116
*657 FILLER_7_124
*658 FILLER_7_130
*659 FILLER_7_147
*660 FILLER_7_151
*661 FILLER_7_22
*662 FILLER_7_43
*663 FILLER_7_52
*664 FILLER_7_6
*665 FILLER_7_85
*666 FILLER_8_13
*667 FILLER_8_148
*668 FILLER_8_25
*669 FILLER_8_3
*670 FILLER_8_32
*671 FILLER_8_40
*672 FILLER_8_53
*673 FILLER_8_61
*674 FILLER_8_65
*675 FILLER_8_73
*676 FILLER_8_82
*677 FILLER_8_85
*678 FILLER_8_94
*679 FILLER_8_98
*680 FILLER_9_105
*681 FILLER_9_111
*682 FILLER_9_113
*683 FILLER_9_138
*684 FILLER_9_144
*685 FILLER_9_151
*686 FILLER_9_22
*687 FILLER_9_3
*688 FILLER_9_33
*689 FILLER_9_45
*690 FILLER_9_51
*691 FILLER_9_55
*692 FILLER_9_85
*693 FILLER_9_92
*694 FILLER_9_98
*695 PHY_EDGE_ROW_0_Left_26
*696 PHY_EDGE_ROW_0_Right_0
*697 PHY_EDGE_ROW_10_Left_36
*698 PHY_EDGE_ROW_10_Right_10
*699 PHY_EDGE_ROW_11_Left_37
*700 PHY_EDGE_ROW_11_Right_11
*701 PHY_EDGE_ROW_12_Left_38
*702 PHY_EDGE_ROW_12_Right_12
*703 PHY_EDGE_ROW_13_Left_39
*704 PHY_EDGE_ROW_13_Right_13
*705 PHY_EDGE_ROW_14_Left_40
*706 PHY_EDGE_ROW_14_Right_14
*707 PHY_EDGE_ROW_15_Left_41
*708 PHY_EDGE_ROW_15_Right_15
*709 PHY_EDGE_ROW_16_Left_42
*710 PHY_EDGE_ROW_16_Right_16
*711 PHY_EDGE_ROW_17_Left_43
*712 PHY_EDGE_ROW_17_Right_17
*713 PHY_EDGE_ROW_18_Left_44
*714 PHY_EDGE_ROW_18_Right_18
*715 PHY_EDGE_ROW_19_Left_45
*716 PHY_EDGE_ROW_19_Right_19
*717 PHY_EDGE_ROW_1_Left_27
*718 PHY_EDGE_ROW_1_Right_1
*719 PHY_EDGE_ROW_20_Left_46
*720 PHY_EDGE_ROW_20_Right_20
*721 PHY_EDGE_ROW_21_Left_47
*722 PHY_EDGE_ROW_21_Right_21
*723 PHY_EDGE_ROW_22_Left_48
*724 PHY_EDGE_ROW_22_Right_22
*725 PHY_EDGE_ROW_23_Left_49
*726 PHY_EDGE_ROW_23_Right_23
*727 PHY_EDGE_ROW_24_Left_50
*728 PHY_EDGE_ROW_24_Right_24
*729 PHY_EDGE_ROW_25_Left_51
*730 PHY_EDGE_ROW_25_Right_25
*731 PHY_EDGE_ROW_2_Left_28
*732 PHY_EDGE_ROW_2_Right_2
*733 PHY_EDGE_ROW_3_Left_29
*734 PHY_EDGE_ROW_3_Right_3
*735 PHY_EDGE_ROW_4_Left_30
*736 PHY_EDGE_ROW_4_Right_4
*737 PHY_EDGE_ROW_5_Left_31
*738 PHY_EDGE_ROW_5_Right_5
*739 PHY_EDGE_ROW_6_Left_32
*740 PHY_EDGE_ROW_6_Right_6
*741 PHY_EDGE_ROW_7_Left_33
*742 PHY_EDGE_ROW_7_Right_7
*743 PHY_EDGE_ROW_8_Left_34
*744 PHY_EDGE_ROW_8_Right_8
*745 PHY_EDGE_ROW_9_Left_35
*746 PHY_EDGE_ROW_9_Right_9
*747 TAP_TAPCELL_ROW_0_52
*748 TAP_TAPCELL_ROW_0_53
*749 TAP_TAPCELL_ROW_0_54
*750 TAP_TAPCELL_ROW_0_55
*751 TAP_TAPCELL_ROW_0_56
*752 TAP_TAPCELL_ROW_10_79
*753 TAP_TAPCELL_ROW_10_80
*754 TAP_TAPCELL_ROW_10_81
*755 TAP_TAPCELL_ROW_11_82
*756 TAP_TAPCELL_ROW_11_83
*757 TAP_TAPCELL_ROW_12_84
*758 TAP_TAPCELL_ROW_12_85
*759 TAP_TAPCELL_ROW_12_86
*760 TAP_TAPCELL_ROW_13_87
*761 TAP_TAPCELL_ROW_13_88
*762 TAP_TAPCELL_ROW_14_89
*763 TAP_TAPCELL_ROW_14_90
*764 TAP_TAPCELL_ROW_14_91
*765 TAP_TAPCELL_ROW_15_92
*766 TAP_TAPCELL_ROW_15_93
*767 TAP_TAPCELL_ROW_16_94
*768 TAP_TAPCELL_ROW_16_95
*769 TAP_TAPCELL_ROW_16_96
*770 TAP_TAPCELL_ROW_17_97
*771 TAP_TAPCELL_ROW_17_98
*772 TAP_TAPCELL_ROW_18_100
*773 TAP_TAPCELL_ROW_18_101
*774 TAP_TAPCELL_ROW_18_99
*775 TAP_TAPCELL_ROW_19_102
*776 TAP_TAPCELL_ROW_19_103
*777 TAP_TAPCELL_ROW_1_57
*778 TAP_TAPCELL_ROW_1_58
*779 TAP_TAPCELL_ROW_20_104
*780 TAP_TAPCELL_ROW_20_105
*781 TAP_TAPCELL_ROW_20_106
*782 TAP_TAPCELL_ROW_21_107
*783 TAP_TAPCELL_ROW_21_108
*784 TAP_TAPCELL_ROW_22_109
*785 TAP_TAPCELL_ROW_22_110
*786 TAP_TAPCELL_ROW_22_111
*787 TAP_TAPCELL_ROW_23_112
*788 TAP_TAPCELL_ROW_23_113
*789 TAP_TAPCELL_ROW_24_114
*790 TAP_TAPCELL_ROW_24_115
*791 TAP_TAPCELL_ROW_24_116
*792 TAP_TAPCELL_ROW_25_117
*793 TAP_TAPCELL_ROW_25_118
*794 TAP_TAPCELL_ROW_25_119
*795 TAP_TAPCELL_ROW_25_120
*796 TAP_TAPCELL_ROW_25_121
*797 TAP_TAPCELL_ROW_2_59
*798 TAP_TAPCELL_ROW_2_60
*799 TAP_TAPCELL_ROW_2_61
*800 TAP_TAPCELL_ROW_3_62
*801 TAP_TAPCELL_ROW_3_63
*802 TAP_TAPCELL_ROW_4_64
*803 TAP_TAPCELL_ROW_4_65
*804 TAP_TAPCELL_ROW_4_66
*805 TAP_TAPCELL_ROW_5_67
*806 TAP_TAPCELL_ROW_5_68
*807 TAP_TAPCELL_ROW_6_69
*808 TAP_TAPCELL_ROW_6_70
*809 TAP_TAPCELL_ROW_6_71
*810 TAP_TAPCELL_ROW_7_72
*811 TAP_TAPCELL_ROW_7_73
*812 TAP_TAPCELL_ROW_8_74
*813 TAP_TAPCELL_ROW_8_75
*814 TAP_TAPCELL_ROW_8_76
*815 TAP_TAPCELL_ROW_9_77
*816 TAP_TAPCELL_ROW_9_78
*817 _236_
*818 _237_
*819 _238_
*820 _239_
*821 _240_
*822 _241_
*823 _242_
*824 _243_
*825 _244_
*826 _245_
*827 _246_
*828 _247_
*829 _248_
*830 _249_
*831 _250_
*832 _251_
*833 _252_
*834 _253_
*835 _254_
*836 _255_
*837 _256_
*838 _257_
*839 _258_
*840 _259_
*841 _260_
*842 _261_
*843 _262_
*844 _263_
*845 _264_
*846 _265_
*847 _266_
*848 _267_
*849 _268_
*850 _269_
*851 _270_
*852 _271_
*853 _272_
*854 _273_
*855 _274_
*856 _275_
*857 _276_
*858 _277_
*859 _278_
*860 _279_
*861 _280_
*862 _281_
*863 _282_
*864 _283_
*865 _284_
*866 _285_
*867 _286_
*868 _287_
*869 _288_
*870 _289_
*871 _290_
*872 _291_
*873 _292_
*874 _293_
*875 _294_
*876 _295_
*877 _296_
*878 _297_
*879 _298_
*880 _299_
*881 _300_
*882 _301_
*883 _302_
*884 _303_
*885 _304_
*886 _305_
*887 _306_
*888 _307_
*889 _308_
*890 _309_
*891 _310_
*892 _311_
*893 _312_
*894 _313_
*895 _314_
*896 _315_
*897 _316_
*898 _317_
*899 _318_
*900 _319_
*901 _320_
*902 _321_
*903 _322_
*904 _323_
*905 _324_
*906 _325_
*907 _326_
*908 _327_
*909 _328_
*910 _329_
*911 _330_
*912 _331_
*913 _332_
*914 _333_
*915 _334_
*916 _335_
*917 _336_
*918 _337_
*919 _338_
*920 _339_
*921 _340_
*922 _341_
*923 _342_
*924 _343_
*925 _344_
*926 _345_
*927 _346_
*928 _347_
*929 _348_
*930 _349_
*931 _350_
*932 _351_
*933 _352_
*934 _353_
*935 _354_
*936 _355_
*937 _356_
*938 _357_
*939 _358_
*940 _359_
*941 _360_
*942 _361_
*943 _362_
*944 _363_
*945 _364_
*946 _365_
*947 _366_
*948 _367_
*949 _368_
*950 _369_
*951 _370_
*952 _371_
*953 _372_
*954 _373_
*955 _374_
*956 _375_
*957 _376_
*958 _377_
*959 _378_
*960 _379_
*961 _380_
*962 _381_
*963 _382_
*964 _383_
*965 _384_
*966 _385_
*967 _386_
*968 _387_
*969 _388_
*970 _389_
*971 _390_
*972 _391_
*973 _392_
*974 _393_
*975 _394_
*976 _395_
*977 _396_
*978 _397_
*979 _398_
*980 _399_
*981 _400_
*982 _401_
*983 _402_
*984 _403_
*985 _404_
*986 _405_
*987 _406_
*988 _407_
*989 _408_
*990 _409_
*991 _410_
*992 _411_
*993 _412_
*994 _413_
*995 _414_
*996 _415_
*997 _416_
*998 _417_
*999 _418_
*1000 _419_
*1001 _420_
*1002 _421_
*1003 _422_
*1004 _423_
*1005 _424_
*1006 _425_
*1007 _426_
*1008 _427_
*1009 _428_
*1010 _429_
*1011 _430_
*1012 _431_
*1013 _432_
*1014 _433_
*1015 _434_
*1016 _435_
*1017 _436_
*1018 _437_
*1019 _438_
*1020 _439_
*1021 _440_
*1022 _441_
*1023 _442_
*1024 _443_
*1025 _444_
*1026 _445_
*1027 _446_
*1028 _447_
*1029 _448_
*1030 _449_
*1031 _450_
*1032 _451_
*1033 _452_
*1034 _453_
*1035 _454_
*1036 _455_
*1037 _456_
*1038 _457_
*1039 _458_
*1040 _459_
*1041 _460_
*1042 _461_
*1043 _462_
*1044 _463_
*1045 _464_
*1046 _465_
*1047 _466_
*1048 _467_
*1049 _468_
*1050 _469_
*1051 _470_
*1052 _471_
*1053 _472_
*1054 _473_
*1055 _474_
*1056 _475_
*1057 _476_
*1058 _477_
*1059 _478_
*1060 _479_
*1061 _480_
*1062 _481_
*1063 _482_
*1064 _483_
*1065 _484_
*1066 _485_
*1067 _486_
*1068 _487_
*1069 _488_
*1070 _489_
*1071 _490_
*1072 _491_
*1073 _492_
*1074 _493_
*1075 _494_
*1076 _495_
*1077 _496_
*1078 _497_
*1079 _498_
*1080 _499_
*1081 _500_
*1082 _501_
*1083 _502_
*1084 _503_
*1085 _504_
*1086 clkbuf_0_clk
*1087 clkbuf_2_0__f_clk
*1088 clkbuf_2_1__f_clk
*1089 clkbuf_2_2__f_clk
*1090 clkbuf_2_3__f_clk
*1091 clkload0
*1092 clkload1
*1093 clkload2
*1094 clone2
*1095 fanout35
*1096 fanout36
*1097 fanout37
*1098 fanout38
*1099 fanout39
*1100 fanout40
*1101 fanout41
*1102 fanout42
*1103 hold17
*1104 input1
*1105 input10
*1106 input11
*1107 input12
*1108 input13
*1109 input14
*1110 input15
*1111 input16
*1112 input17
*1113 input18
*1114 input19
*1115 input2
*1116 input20
*1117 input21
*1118 input22
*1119 input23
*1120 input24
*1121 input25
*1122 input26
*1123 input27
*1124 input28
*1125 input29
*1126 input3
*1127 input30
*1128 input31
*1129 input32
*1130 input33
*1131 input4
*1132 input5
*1133 input6
*1134 input7
*1135 input8
*1136 input9
*1137 output34
*1138 rebuffer1
*1139 rebuffer3
*1140 rebuffer4
*1141 rebuffer5

*PORTS
clk I
out O
psc[0] I
psc[10] I
psc[11] I
psc[12] I
psc[13] I
psc[14] I
psc[15] I
psc[16] I
psc[17] I
psc[18] I
psc[19] I
psc[1] I
psc[20] I
psc[21] I
psc[22] I
psc[23] I
psc[24] I
psc[25] I
psc[26] I
psc[27] I
psc[28] I
psc[29] I
psc[2] I
psc[30] I
psc[31] I
psc[3] I
psc[4] I
psc[5] I
psc[6] I
psc[7] I
psc[8] I
psc[9] I
rst I

*D_NET *3 0.00857399
*CONN
*P clk I
*I *1086:A I *D sky130_fd_sc_hd__clkbuf_16
*CAP
1 clk 0.00297106
2 *1086:A 0
3 *3:9 0.00297106
4 *3:9 *843:A 0.000219882
5 *3:9 *964:A 0
6 *3:9 *965:A_N 0.000305509
7 *3:9 *966:B 0.000157309
8 *3:9 *967:C 0
9 *3:9 *1066:CLK 0.00010109
10 *3:9 *42:10 0
11 *3:9 *44:10 0.000141869
12 *3:9 *83:10 0.000180933
13 *3:9 *99:8 0.000114092
14 *3:9 *237:10 8.85189e-05
15 *3:9 *239:14 0.000194318
16 *3:9 *309:19 0.000103948
17 *3:9 *309:27 0.000186632
18 *3:9 *314:113 0.000645672
19 *3:9 *330:19 0
20 *3:9 *331:12 0
21 *3:9 *345:16 0.000192096
*RES
1 clk *3:9 42.4796 
2 *3:9 *1086:A 38 
*END

*D_NET *4 0.00146532
*CONN
*P out O
*I *1137:X O *D sky130_fd_sc_hd__buf_2
*CAP
1 out 0.000377599
2 *1137:X 0.000296688
3 *4:8 0.000674287
4 *4:8 *1103:A 2.07484e-05
5 *4:8 *306:14 1.70513e-05
6 *4:8 *311:58 7.89424e-05
*RES
1 *1137:X *4:8 42.4329 
2 *4:8 out 7.99571 
*END

*D_NET *5 0.00120097
*CONN
*P psc[0] I
*I *1104:A I *D sky130_fd_sc_hd__clkbuf_1
*CAP
1 psc[0] 0.000532333
2 *1104:A 0.000532333
3 *1104:A *27:15 6.4865e-05
4 *1104:A *72:8 0
5 *1104:A *128:10 7.14436e-05
6 *1104:A *338:34 0
*RES
1 psc[0] *1104:A 49.0886 
*END

*D_NET *6 0.00102376
*CONN
*P psc[10] I
*I *1115:A I *D sky130_fd_sc_hd__clkbuf_1
*CAP
1 psc[10] 0.00051188
2 *1115:A 0.00051188
3 *1115:A *1126:A 0
4 *1115:A *1133:A 0
*RES
1 psc[10] *1115:A 48.73 
*END

*D_NET *7 0.00102563
*CONN
*P psc[11] I
*I *1126:A I *D sky130_fd_sc_hd__clkbuf_1
*CAP
1 psc[11] 0.00051096
2 *1126:A 0.00051096
3 *1126:A *290:10 3.7122e-06
4 *1115:A *1126:A 0
*RES
1 psc[11] *1126:A 48.73 
*END

*D_NET *8 0.00102823
*CONN
*P psc[12] I
*I *1131:A I *D sky130_fd_sc_hd__clkbuf_1
*CAP
1 psc[12] 0.000504372
2 *1131:A 0.000504372
3 *1131:A *1132:A 0
4 *1131:A *312:10 1.94812e-05
*RES
1 psc[12] *1131:A 48.73 
*END

*D_NET *9 0.00113956
*CONN
*P psc[13] I
*I *1132:A I *D sky130_fd_sc_hd__clkbuf_1
*CAP
1 psc[13] 0.000548525
2 *1132:A 0.000548525
3 *1132:A *11:11 0
4 *1132:A *134:12 1.94812e-05
5 *1132:A *321:10 2.30292e-05
6 *1131:A *1132:A 0
*RES
1 psc[13] *1132:A 49.6829 
*END

*D_NET *10 0.00118266
*CONN
*P psc[14] I
*I *1133:A I *D sky130_fd_sc_hd__clkbuf_1
*CAP
1 psc[14] 0.000588643
2 *1133:A 0.000588643
3 *1133:A *11:11 0
4 *1133:A *323:10 5.37348e-06
5 *1115:A *1133:A 0
*RES
1 psc[14] *1133:A 49.9729 
*END

*D_NET *11 0.00148397
*CONN
*P psc[15] I
*I *1134:A I *D sky130_fd_sc_hd__clkbuf_1
*CAP
1 psc[15] 0.000680518
2 *1134:A 0
3 *11:11 0.000680518
4 *11:11 *848:B 5.50106e-05
5 *11:11 *134:12 4.04598e-06
6 *11:11 *134:25 1.89065e-05
7 *11:11 *323:10 2.45549e-06
8 *11:11 *324:6 2.30292e-05
9 *11:11 *324:14 1.94812e-05
10 *1132:A *11:11 0
11 *1133:A *11:11 0
*RES
1 psc[15] *11:11 28.7336 
2 *11:11 *1134:A 23 
*END

*D_NET *12 0.000582552
*CONN
*P psc[16] I
*I *1135:A I *D sky130_fd_sc_hd__clkbuf_1
*CAP
1 psc[16] 0.000216414
2 *1135:A 0.000216414
3 *1135:A *1125:A 7.1481e-05
4 *1135:A *1127:A 0
5 *1135:A *32:13 7.82427e-05
6 *1135:A *122:14 0
*RES
1 psc[16] *1135:A 48.1354 
*END

*D_NET *13 0.00077153
*CONN
*P psc[17] I
*I *1136:A I *D sky130_fd_sc_hd__clkbuf_1
*CAP
1 psc[17] 0.000311014
2 *1136:A 0.000311014
3 *1136:A *861:B2 0
4 *1136:A *866:A2 0
5 *1136:A *1123:A 7.12589e-05
6 *1136:A *32:13 7.82427e-05
*RES
1 psc[17] *1136:A 49.1918 
*END

*D_NET *14 0.00100747
*CONN
*P psc[18] I
*I *1105:A I *D sky130_fd_sc_hd__clkbuf_1
*CAP
1 psc[18] 0.000493995
2 *1105:A 0.000493995
3 *1105:A *1106:A 0
4 *1105:A *280:10 1.94812e-05
*RES
1 psc[18] *1105:A 48.2743 
*END

*D_NET *15 0.000901682
*CONN
*P psc[19] I
*I *1106:A I *D sky130_fd_sc_hd__clkbuf_1
*CAP
1 psc[19] 0.000450841
2 *1106:A 0.000450841
3 *1106:A *1110:A 0
4 *1105:A *1106:A 0
*RES
1 psc[19] *1106:A 47.3214 
*END

*D_NET *16 0.000485145
*CONN
*P psc[1] I
*I *1107:A I *D sky130_fd_sc_hd__clkbuf_1
*CAP
1 psc[1] 0.000167711
2 *1107:A 0.000167711
3 *1107:A *864:A1 0
4 *1107:A *1122:A 7.82427e-05
5 *1107:A *27:15 7.1481e-05
*RES
1 psc[1] *1107:A 47.4311 
*END

*D_NET *17 0.00070451
*CONN
*P psc[20] I
*I *1108:A I *D sky130_fd_sc_hd__clkbuf_1
*CAP
1 psc[20] 0.000326008
2 *1108:A 0
3 *17:17 0.000326008
4 *17:17 *1114:A 2.12457e-05
5 *17:17 *1117:A 3.12475e-05
*RES
1 psc[20] *17:17 27.8627 
2 *17:17 *1108:A 23 
*END

*D_NET *18 0.00135195
*CONN
*P psc[21] I
*I *1109:A I *D sky130_fd_sc_hd__buf_1
*CAP
1 psc[21] 0.000561997
2 *1109:A 0
3 *18:13 0.000561997
4 *18:13 *1040:A 9.84851e-05
5 *18:13 *1110:A 0
6 *18:13 *285:12 0.000129468
*RES
1 psc[21] *18:13 27.47 
2 *18:13 *1109:A 23 
*END

*D_NET *19 0.00101811
*CONN
*P psc[22] I
*I *1110:A I *D sky130_fd_sc_hd__clkbuf_1
*CAP
1 psc[22] 0.000505965
2 *1110:A 0.000505965
3 *1110:A *285:12 6.17437e-06
4 *1106:A *1110:A 0
5 *18:13 *1110:A 0
*RES
1 psc[22] *1110:A 48.5643 
*END

*D_NET *20 0.000622312
*CONN
*P psc[23] I
*I *1111:A I *D sky130_fd_sc_hd__clkbuf_1
*CAP
1 psc[23] 0.000311156
2 *1111:A 0.000311156
3 *1111:A *22:17 0
*RES
1 psc[23] *1111:A 49.8062 
*END

*D_NET *21 0.000595084
*CONN
*P psc[24] I
*I *1112:A I *D sky130_fd_sc_hd__clkbuf_1
*CAP
1 psc[24] 0.000270169
2 *1112:A 0.000270169
3 *1112:A *1114:A 0
4 *1112:A *22:17 2.79122e-05
5 *1112:A *24:17 2.12457e-05
6 *1112:A *287:10 5.58873e-06
7 *1112:A *291:21 0
8 *1112:A *344:41 0
*RES
1 psc[24] *1112:A 48.1354 
*END

*D_NET *22 0.000695547
*CONN
*P psc[25] I
*I *1113:A I *D sky130_fd_sc_hd__clkbuf_1
*CAP
1 psc[25] 0.000333818
2 *1113:A 0
3 *22:17 0.000333818
4 *22:17 *287:10 0
5 *1111:A *22:17 0
6 *1112:A *22:17 2.79122e-05
*RES
1 psc[25] *22:17 27.5105 
2 *22:17 *1113:A 23 
*END

*D_NET *23 0.00134465
*CONN
*P psc[26] I
*I *1114:A I *D sky130_fd_sc_hd__clkbuf_1
*CAP
1 psc[26] 0.000604255
2 *1114:A 0.000604255
3 *1114:A *889:B 8.69785e-05
4 *1114:A *1117:A 0
5 *1114:A *24:17 2.79122e-05
6 *1114:A *206:10 0
7 *1112:A *1114:A 0
8 *17:17 *1114:A 2.12457e-05
*RES
1 psc[26] *1114:A 49.9646 
*END

*D_NET *24 0.000660958
*CONN
*P psc[27] I
*I *1116:A I *D sky130_fd_sc_hd__clkbuf_1
*CAP
1 psc[27] 0.0003059
2 *1116:A 0
3 *24:17 0.0003059
4 *1112:A *24:17 2.12457e-05
5 *1114:A *24:17 2.79122e-05
*RES
1 psc[27] *24:17 27.1584 
2 *24:17 *1116:A 23 
*END

*D_NET *25 0.000541948
*CONN
*P psc[28] I
*I *1117:A I *D sky130_fd_sc_hd__clkbuf_1
*CAP
1 psc[28] 0.000244727
2 *1117:A 0.000244727
3 *1117:A *1118:A 2.12457e-05
4 *1114:A *1117:A 0
5 *17:17 *1117:A 3.12475e-05
*RES
1 psc[28] *1117:A 47.7832 
*END

*D_NET *26 0.000620863
*CONN
*P psc[29] I
*I *1118:A I *D sky130_fd_sc_hd__clkbuf_1
*CAP
1 psc[29] 0.00028365
2 *1118:A 0.00028365
3 *1118:A *1121:A 3.23168e-05
4 *1117:A *1118:A 2.12457e-05
*RES
1 psc[29] *1118:A 49.8062 
*END

*D_NET *27 0.00228714
*CONN
*P psc[2] I
*I *1119:A I *D sky130_fd_sc_hd__clkbuf_1
*CAP
1 psc[2] 0.000573729
2 *1119:A 0
3 *27:15 0.000573729
4 *27:15 *863:B1 4.9662e-05
5 *27:15 *865:A2 5.67058e-05
6 *27:15 *865:B1 8.71791e-05
7 *27:15 *127:6 0.000117769
8 *27:15 *151:8 4.56951e-05
9 *27:15 *294:10 0.000646321
10 *1104:A *27:15 6.4865e-05
11 *1107:A *27:15 7.1481e-05
*RES
1 psc[2] *27:15 35.1166 
2 *27:15 *1119:A 23 
*END

*D_NET *28 0.000670185
*CONN
*P psc[30] I
*I *1120:A I *D sky130_fd_sc_hd__clkbuf_1
*CAP
1 psc[30] 0.00032447
2 *1120:A 0
3 *28:17 0.00032447
4 *28:17 *1121:A 2.12457e-05
5 *28:17 *351:12 0
*RES
1 psc[30] *28:17 27.5105 
2 *28:17 *1120:A 23 
*END

*D_NET *29 0.000620919
*CONN
*P psc[31] I
*I *1121:A I *D sky130_fd_sc_hd__clkbuf_1
*CAP
1 psc[31] 0.000283678
2 *1121:A 0.000283678
3 *1118:A *1121:A 3.23168e-05
4 *28:17 *1121:A 2.12457e-05
*RES
1 psc[31] *1121:A 49.8062 
*END

*D_NET *30 0.000997622
*CONN
*P psc[3] I
*I *1122:A I *D sky130_fd_sc_hd__clkbuf_1
*CAP
1 psc[3] 0.00037924
2 *1122:A 0.00037924
3 *1122:A *866:B1 8.02832e-05
4 *1122:A *1123:A 8.06147e-05
5 *1107:A *1122:A 7.82427e-05
*RES
1 psc[3] *1122:A 48.3843 
*END

*D_NET *31 0.000681006
*CONN
*P psc[4] I
*I *1123:A I *D sky130_fd_sc_hd__clkbuf_1
*CAP
1 psc[4] 0.000264566
2 *1123:A 0.000264566
3 *1123:A *866:A2 0
4 *1123:A *866:B1 0
5 *1123:A *867:A1 0
6 *1122:A *1123:A 8.06147e-05
7 *1136:A *1123:A 7.12589e-05
*RES
1 psc[4] *1123:A 48.8397 
*END

*D_NET *32 0.000850055
*CONN
*P psc[5] I
*I *1124:A I *D sky130_fd_sc_hd__clkbuf_1
*CAP
1 psc[5] 0.000340058
2 *1124:A 0
3 *32:13 0.000340058
4 *32:13 *299:10 0
5 *32:13 *325:8 1.34542e-05
6 *32:13 *353:53 0
7 *1135:A *32:13 7.82427e-05
8 *1136:A *32:13 7.82427e-05
*RES
1 psc[5] *32:13 27.5175 
2 *32:13 *1124:A 23 
*END

*D_NET *33 0.000755313
*CONN
*P psc[6] I
*I *1125:A I *D sky130_fd_sc_hd__clkbuf_1
*CAP
1 psc[6] 0.000309483
2 *1125:A 0.000309483
3 *1125:A *869:A1 0
4 *1125:A *1127:A 6.4865e-05
5 *1135:A *1125:A 7.1481e-05
*RES
1 psc[6] *1125:A 49.8931 
*END

*D_NET *34 0.000755385
*CONN
*P psc[7] I
*I *1127:A I *D sky130_fd_sc_hd__clkbuf_1
*CAP
1 psc[7] 0.000276783
2 *1127:A 0.000276783
3 *1127:A *869:A1 0
4 *1127:A *1129:A 0
5 *1127:A *35:13 7.1481e-05
6 *1127:A *302:8 6.54744e-05
7 *1125:A *1127:A 6.4865e-05
8 *1135:A *1127:A 0
*RES
1 psc[7] *1127:A 49.5439 
*END

*D_NET *35 0.0010739
*CONN
*P psc[8] I
*I *1128:A I *D sky130_fd_sc_hd__buf_1
*CAP
1 psc[8] 0.00045186
2 *1128:A 0
3 *35:13 0.00045186
4 *35:13 *860:A1 0
5 *35:13 *1129:A 7.1481e-05
6 *35:13 *303:8 2.72191e-05
7 *35:13 *303:27 0
8 *1127:A *35:13 7.1481e-05
*RES
1 psc[8] *35:13 29.5445 
2 *35:13 *1128:A 23 
*END

*D_NET *36 0.000964158
*CONN
*P psc[9] I
*I *1129:A I *D sky130_fd_sc_hd__buf_1
*CAP
1 psc[9] 0.000345829
2 *1129:A 0.000345829
3 *1129:A *860:A1 0.000129561
4 *1129:A *303:8 7.1459e-05
5 *1127:A *1129:A 0
6 *35:13 *1129:A 7.1481e-05
*RES
1 psc[9] *1129:A 48.7451 
*END

*D_NET *37 0.000428272
*CONN
*P rst I
*I *1130:A I *D sky130_fd_sc_hd__buf_1
*CAP
1 rst 0.000214136
2 *1130:A 0.000214136
3 *1130:A *847:A 0
*RES
1 rst *1130:A 47.0789 
*END

*D_NET *38 0.000447615
*CONN
*I *1053:D I *D sky130_fd_sc_hd__dfrtp_2
*I *927:X O *D sky130_fd_sc_hd__and2b_1
*CAP
1 *1053:D 0
2 *927:X 0.000175878
3 *38:10 0.000175878
4 *38:10 *1053:CLK 4.08537e-05
5 *38:10 *327:14 5.50049e-05
*RES
1 *927:X *38:10 40.8793 
2 *38:10 *1053:D 38 
*END

*D_NET *39 0.0010923
*CONN
*I *1063:D I *D sky130_fd_sc_hd__dfrtp_1
*I *959:X O *D sky130_fd_sc_hd__and3b_1
*CAP
1 *1063:D 0
2 *959:X 0.000349564
3 *39:10 0.000349564
4 *39:10 *959:C 3.98818e-05
5 *39:10 *965:C 2.7237e-05
6 *39:10 *80:8 0
7 *39:10 *161:14 0.000326053
*RES
1 *959:X *39:10 44.8979 
2 *39:10 *1063:D 38 
*END

*D_NET *40 0.000771268
*CONN
*I *1064:D I *D sky130_fd_sc_hd__dfrtp_1
*I *962:X O *D sky130_fd_sc_hd__and3b_1
*CAP
1 *1064:D 0
2 *962:X 0.000118516
3 *40:10 0.000118516
4 *40:10 *962:B 5.3304e-05
5 *40:10 *161:14 0.000171906
6 *40:10 *234:10 0.000169674
7 *40:10 *235:18 0.000139352
*RES
1 *962:X *40:10 41.8321 
2 *40:10 *1064:D 38 
*END

*D_NET *41 0.00111807
*CONN
*I *1065:D I *D sky130_fd_sc_hd__dfrtp_1
*I *965:X O *D sky130_fd_sc_hd__and3b_1
*CAP
1 *1065:D 0
2 *965:X 0.000419899
3 *41:8 0.000419899
4 *41:8 *965:C 0.000278276
*RES
1 *965:X *41:8 31.7414 
2 *41:8 *1065:D 23 
*END

*D_NET *42 0.000770164
*CONN
*I *1066:D I *D sky130_fd_sc_hd__dfrtp_1
*I *968:X O *D sky130_fd_sc_hd__and3b_1
*CAP
1 *1066:D 0
2 *968:X 0.000334992
3 *42:10 0.000334992
4 *42:10 *971:C 0.00010018
5 *42:10 *1033:A 0
6 *42:10 *83:10 0
7 *3:9 *42:10 0
*RES
1 *968:X *42:10 43.8207 
2 *42:10 *1066:D 38 
*END

*D_NET *43 0.000248368
*CONN
*I *1067:D I *D sky130_fd_sc_hd__dfrtp_1
*I *971:X O *D sky130_fd_sc_hd__and3_1
*CAP
1 *1067:D 0
2 *971:X 0.000105451
3 *43:8 0.000105451
4 *43:8 *277:82 3.36312e-06
5 *43:8 *277:91 3.41019e-05
6 *43:8 *314:50 0
7 *43:8 *314:82 0
*RES
1 *971:X *43:8 39.9057 
2 *43:8 *1067:D 38 
*END

*D_NET *44 0.000501763
*CONN
*I *1068:D I *D sky130_fd_sc_hd__dfrtp_1
*I *975:X O *D sky130_fd_sc_hd__and3b_1
*CAP
1 *1068:D 0
2 *975:X 9.99373e-05
3 *44:10 9.99373e-05
4 *44:10 *243:12 1.59094e-05
5 *44:10 *309:19 0.00014411
6 *3:9 *44:10 0.000141869
*RES
1 *975:X *44:10 40.5271 
2 *44:10 *1068:D 38 
*END

*D_NET *45 0.00104119
*CONN
*I *1069:D I *D sky130_fd_sc_hd__dfrtp_1
*I *978:X O *D sky130_fd_sc_hd__and3b_1
*CAP