*SPEF "ieee 1481-1999"
*DESIGN "freq_psc"
*DATE "14:45:37 Monday October 28, 2024"
*VENDOR "The OpenROAD Project"
*PROGRAM "OpenROAD"
*VERSION "edf00dff99f6c40d67a30c0e22a8191c5d2ed9d6"
*DESIGN_FLOW "NAME_SCOPE LOCAL" "PIN_CAP NONE"
*DIVIDER /
*DELIMITER :
*BUS_DELIMITER []
*T_UNIT 1 NS
*C_UNIT 1 PF
*R_UNIT 1 OHM
*L_UNIT 1 HENRY

*NAME_MAP
*3 clk
*4 out
*5 psc[0]
*6 psc[10]
*7 psc[11]
*8 psc[12]
*9 psc[13]
*10 psc[14]
*11 psc[15]
*12 psc[1]
*13 psc[2]
*14 psc[3]
*15 psc[4]
*16 psc[5]
*17 psc[6]
*18 psc[7]
*19 psc[8]
*20 psc[9]
*21 rst
*22 _000_
*23 _001_
*24 _002_
*25 _003_
*26 _004_
*27 _005_
*28 _006_
*29 _007_
*30 _008_
*31 _009_
*32 _010_
*33 _011_
*34 _012_
*35 _013_
*36 _014_
*37 _015_
*38 _016_
*39 _017_
*40 _018_
*41 _019_
*42 _020_
*43 _021_
*44 _022_
*45 _023_
*46 _024_
*47 _025_
*48 _026_
*49 _027_
*50 _028_
*51 _029_
*52 _030_
*53 _031_
*54 _032_
*55 _033_
*56 _034_
*57 _035_
*58 _036_
*59 _037_
*60 _038_
*61 _039_
*62 _040_
*63 _041_
*64 _042_
*65 _043_
*66 _044_
*67 _045_
*68 _046_
*69 _047_
*70 _048_
*71 _049_
*72 _050_
*73 _051_
*74 _052_
*75 _053_
*76 _054_
*77 _055_
*78 _056_
*79 _057_
*80 _058_
*81 _059_
*82 _060_
*83 _061_
*84 _062_
*85 _063_
*86 _064_
*87 _065_
*88 _066_
*89 _067_
*90 _068_
*91 _069_
*92 _070_
*93 _071_
*94 _072_
*95 _073_
*96 _074_
*97 _075_
*98 _076_
*99 _077_
*100 _078_
*101 _079_
*102 _080_
*103 _081_
*104 _082_
*105 _083_
*106 _084_
*107 _085_
*108 _086_
*109 _087_
*110 _088_
*111 _089_
*112 _090_
*113 _091_
*114 _092_
*115 _093_
*116 _094_
*117 _095_
*118 _096_
*119 _097_
*120 _098_
*121 _099_
*122 _100_
*123 _101_
*124 _102_
*125 _103_
*126 _104_
*127 _105_
*128 _106_
*129 _107_
*130 _108_
*131 _109_
*132 _110_
*133 _111_
*134 _112_
*135 _113_
*136 _114_
*137 _115_
*138 _116_
*139 _117_
*140 _118_
*141 _119_
*142 _120_
*143 _121_
*144 _122_
*145 _123_
*146 _124_
*147 _125_
*148 _126_
*149 _127_
*150 _128_
*151 _129_
*152 _130_
*153 _131_
*154 _132_
*155 _133_
*156 _134_
*157 _135_
*158 _136_
*159 _137_
*160 _138_
*161 _139_
*162 _140_
*163 _141_
*164 _142_
*165 _143_
*166 _144_
*167 _145_
*168 _146_
*169 _147_
*170 _148_
*171 _149_
*172 _150_
*173 _151_
*174 _152_
*175 _153_
*176 _154_
*177 _155_
*178 _156_
*179 _157_
*180 _158_
*181 _159_
*182 _160_
*183 _161_
*184 _162_
*185 _163_
*186 _164_
*187 _165_
*188 _166_
*189 _167_
*190 _168_
*191 _169_
*192 _170_
*193 _171_
*194 _172_
*195 _173_
*196 _174_
*197 _175_
*198 clknet_0_clk
*199 clknet_1_0__leaf_clk
*200 clknet_1_1__leaf_clk
*201 counter\[0\]
*202 counter\[10\]
*203 counter\[11\]
*204 counter\[12\]
*205 counter\[13\]
*206 counter\[14\]
*207 counter\[15\]
*208 counter\[1\]
*209 counter\[2\]
*210 counter\[3\]
*211 counter\[4\]
*212 counter\[5\]
*213 counter\[6\]
*214 counter\[7\]
*215 counter\[8\]
*216 counter\[9\]
*217 net1
*218 net10
*219 net11
*220 net12
*221 net13
*222 net14
*223 net15
*224 net16
*225 net17
*226 net18
*227 net19
*228 net2
*229 net20
*230 net21
*231 net22
*232 net23
*233 net24
*234 net25
*235 net26
*236 net27
*237 net28
*238 net29
*239 net3
*240 net4
*241 net5
*242 net6
*243 net7
*244 net8
*245 net9
*246 FILLER_0_109
*247 FILLER_0_113
*248 FILLER_0_125
*249 FILLER_0_129
*250 FILLER_0_15
*251 FILLER_0_27
*252 FILLER_0_29
*253 FILLER_0_3
*254 FILLER_0_41
*255 FILLER_0_57
*256 FILLER_0_78
*257 FILLER_0_85
*258 FILLER_0_97
*259 FILLER_10_129
*260 FILLER_10_15
*261 FILLER_10_22
*262 FILLER_10_3
*263 FILLER_10_7
*264 FILLER_10_70
*265 FILLER_10_83
*266 FILLER_10_92
*267 FILLER_11_101
*268 FILLER_11_110
*269 FILLER_11_113
*270 FILLER_11_119
*271 FILLER_11_129
*272 FILLER_11_29
*273 FILLER_11_3
*274 FILLER_11_54
*275 FILLER_11_57
*276 FILLER_11_69
*277 FILLER_11_7
*278 FILLER_11_81
*279 FILLER_11_93
*280 FILLER_12_103
*281 FILLER_12_109
*282 FILLER_12_113
*283 FILLER_12_121
*284 FILLER_12_27
*285 FILLER_12_29
*286 FILLER_12_3
*287 FILLER_12_37
*288 FILLER_12_43
*289 FILLER_12_55
*290 FILLER_12_63
*291 FILLER_12_75
*292 FILLER_12_83
*293 FILLER_12_85
*294 FILLER_12_91
*295 FILLER_13_100
*296 FILLER_13_107
*297 FILLER_13_111
*298 FILLER_13_128
*299 FILLER_13_3
*300 FILLER_13_35
*301 FILLER_13_42
*302 FILLER_13_65
*303 FILLER_13_69
*304 FILLER_13_77
*305 FILLER_13_92
*306 FILLER_14_128
*307 FILLER_14_3
*308 FILLER_14_32
*309 FILLER_14_52
*310 FILLER_14_68
*311 FILLER_14_72
*312 FILLER_15_101
*313 FILLER_15_109
*314 FILLER_15_128
*315 FILLER_15_27
*316 FILLER_15_3
*317 FILLER_15_39
*318 FILLER_15_45
*319 FILLER_15_54
*320 FILLER_15_57
*321 FILLER_15_64
*322 FILLER_15_72
*323 FILLER_15_79
*324 FILLER_15_94
*325 FILLER_16_105
*326 FILLER_16_117
*327 FILLER_16_15
*328 FILLER_16_27
*329 FILLER_16_29
*330 FILLER_16_3
*331 FILLER_16_43
*332 FILLER_16_49
*333 FILLER_16_54
*334 FILLER_16_66
*335 FILLER_16_74
*336 FILLER_16_81
*337 FILLER_16_85
*338 FILLER_16_89
*339 FILLER_16_93
*340 FILLER_17_105
*341 FILLER_17_111
*342 FILLER_17_125
*343 FILLER_17_129
*344 FILLER_17_15
*345 FILLER_17_3
*346 FILLER_17_36
*347 FILLER_17_40
*348 FILLER_17_54
*349 FILLER_17_60
*350 FILLER_17_72
*351 FILLER_17_81
*352 FILLER_17_85
*353 FILLER_17_93
*354 FILLER_18_117
*355 FILLER_18_129
*356 FILLER_18_15
*357 FILLER_18_29
*358 FILLER_18_3
*359 FILLER_18_41
*360 FILLER_18_56
*361 FILLER_18_60
*362 FILLER_18_64
*363 FILLER_18_82
*364 FILLER_18_95
*365 FILLER_19_107
*366 FILLER_19_111
*367 FILLER_19_113
*368 FILLER_19_125
*369 FILLER_19_129
*370 FILLER_19_15
*371 FILLER_19_23
*372 FILLER_19_3
*373 FILLER_19_79
*374 FILLER_19_93
*375 FILLER_1_108
*376 FILLER_1_113
*377 FILLER_1_125
*378 FILLER_1_129
*379 FILLER_1_15
*380 FILLER_1_27
*381 FILLER_1_3
*382 FILLER_1_39
*383 FILLER_1_45
*384 FILLER_1_57
*385 FILLER_1_62
*386 FILLER_1_70
*387 FILLER_1_74
*388 FILLER_1_96
*389 FILLER_20_109
*390 FILLER_20_121
*391 FILLER_20_129
*392 FILLER_20_15
*393 FILLER_20_27
*394 FILLER_20_29
*395 FILLER_20_3
*396 FILLER_20_36
*397 FILLER_20_48
*398 FILLER_20_61
*399 FILLER_20_82
*400 FILLER_20_85
*401 FILLER_20_89
*402 FILLER_20_97
*403 FILLER_21_103
*404 FILLER_21_111
*405 FILLER_21_113
*406 FILLER_21_125
*407 FILLER_21_129
*408 FILLER_21_15
*409 FILLER_21_27
*410 FILLER_21_29
*411 FILLER_21_3
*412 FILLER_21_41
*413 FILLER_21_48
*414 FILLER_21_55
*415 FILLER_21_57
*416 FILLER_21_62
*417 FILLER_21_69
*418 FILLER_21_82
*419 FILLER_21_92
*420 FILLER_2_105
*421 FILLER_2_117
*422 FILLER_2_125
*423 FILLER_2_15
*424 FILLER_2_27
*425 FILLER_2_29
*426 FILLER_2_3
*427 FILLER_2_35
*428 FILLER_2_66
*429 FILLER_2_74
*430 FILLER_2_80
*431 FILLER_3_107
*432 FILLER_3_111
*433 FILLER_3_113
*434 FILLER_3_125
*435 FILLER_3_129
*436 FILLER_3_15
*437 FILLER_3_27
*438 FILLER_3_3
*439 FILLER_3_57
*440 FILLER_3_69
*441 FILLER_3_73
*442 FILLER_3_86
*443 FILLER_4_118
*444 FILLER_4_123
*445 FILLER_4_129
*446 FILLER_4_17
*447 FILLER_4_25
*448 FILLER_4_3
*449 FILLER_4_32
*450 FILLER_4_42
*451 FILLER_4_48
*452 FILLER_4_54
*453 FILLER_4_62
*454 FILLER_4_70
*455 FILLER_4_83
*456 FILLER_4_85
*457 FILLER_4_89
*458 FILLER_4_9
*459 FILLER_5_119
*460 FILLER_5_129
*461 FILLER_5_3
*462 FILLER_5_57
*463 FILLER_5_69
*464 FILLER_5_7
*465 FILLER_5_81
*466 FILLER_6_127
*467 FILLER_6_25
*468 FILLER_6_3
*469 FILLER_6_68
*470 FILLER_6_76
*471 FILLER_6_91
*472 FILLER_7_111
*473 FILLER_7_113
*474 FILLER_7_117
*475 FILLER_7_127
*476 FILLER_7_29
*477 FILLER_7_37
*478 FILLER_7_55
*479 FILLER_7_65
*480 FILLER_7_71
*481 FILLER_8_10
*482 FILLER_8_106
*483 FILLER_8_129
*484 FILLER_8_16
*485 FILLER_8_22
*486 FILLER_8_29
*487 FILLER_8_57
*488 FILLER_8_6
*489 FILLER_8_83
*490 FILLER_9_106
*491 FILLER_9_111
*492 FILLER_9_125
*493 FILLER_9_129
*494 FILLER_9_15
*495 FILLER_9_27
*496 FILLER_9_3
*497 FILLER_9_57
*498 FILLER_9_63
*499 FILLER_9_94
*500 PHY_EDGE_ROW_0_Left_22
*501 PHY_EDGE_ROW_0_Right_0
*502 PHY_EDGE_ROW_10_Left_32
*503 PHY_EDGE_ROW_10_Right_10
*504 PHY_EDGE_ROW_11_Left_33
*505 PHY_EDGE_ROW_11_Right_11
*506 PHY_EDGE_ROW_12_Left_34
*507 PHY_EDGE_ROW_12_Right_12
*508 PHY_EDGE_ROW_13_Left_35
*509 PHY_EDGE_ROW_13_Right_13
*510 PHY_EDGE_ROW_14_Left_36
*511 PHY_EDGE_ROW_14_Right_14
*512 PHY_EDGE_ROW_15_Left_37
*513 PHY_EDGE_ROW_15_Right_15
*514 PHY_EDGE_ROW_16_Left_38
*515 PHY_EDGE_ROW_16_Right_16
*516 PHY_EDGE_ROW_17_Left_39
*517 PHY_EDGE_ROW_17_Right_17
*518 PHY_EDGE_ROW_18_Left_40
*519 PHY_EDGE_ROW_18_Right_18
*520 PHY_EDGE_ROW_19_Left_41
*521 PHY_EDGE_ROW_19_Right_19
*522 PHY_EDGE_ROW_1_Left_23
*523 PHY_EDGE_ROW_1_Right_1
*524 PHY_EDGE_ROW_20_Left_42
*525 PHY_EDGE_ROW_20_Right_20
*526 PHY_EDGE_ROW_21_Left_43
*527 PHY_EDGE_ROW_21_Right_21
*528 PHY_EDGE_ROW_2_Left_24
*529 PHY_EDGE_ROW_2_Right_2
*530 PHY_EDGE_ROW_3_Left_25
*531 PHY_EDGE_ROW_3_Right_3
*532 PHY_EDGE_ROW_4_Left_26
*533 PHY_EDGE_ROW_4_Right_4
*534 PHY_EDGE_ROW_5_Left_27
*535 PHY_EDGE_ROW_5_Right_5
*536 PHY_EDGE_ROW_6_Left_28
*537 PHY_EDGE_ROW_6_Right_6
*538 PHY_EDGE_ROW_7_Left_29
*539 PHY_EDGE_ROW_7_Right_7
*540 PHY_EDGE_ROW_8_Left_30
*541 PHY_EDGE_ROW_8_Right_8
*542 PHY_EDGE_ROW_9_Left_31
*543 PHY_EDGE_ROW_9_Right_9
*544 TAP_TAPCELL_ROW_0_44
*545 TAP_TAPCELL_ROW_0_45
*546 TAP_TAPCELL_ROW_0_46
*547 TAP_TAPCELL_ROW_0_47
*548 TAP_TAPCELL_ROW_10_66
*549 TAP_TAPCELL_ROW_10_67
*550 TAP_TAPCELL_ROW_11_68
*551 TAP_TAPCELL_ROW_11_69
*552 TAP_TAPCELL_ROW_12_70
*553 TAP_TAPCELL_ROW_12_71
*554 TAP_TAPCELL_ROW_13_72
*555 TAP_TAPCELL_ROW_13_73
*556 TAP_TAPCELL_ROW_14_74
*557 TAP_TAPCELL_ROW_14_75
*558 TAP_TAPCELL_ROW_15_76
*559 TAP_TAPCELL_ROW_15_77
*560 TAP_TAPCELL_ROW_16_78
*561 TAP_TAPCELL_ROW_16_79
*562 TAP_TAPCELL_ROW_17_80
*563 TAP_TAPCELL_ROW_17_81
*564 TAP_TAPCELL_ROW_18_82
*565 TAP_TAPCELL_ROW_18_83
*566 TAP_TAPCELL_ROW_19_84
*567 TAP_TAPCELL_ROW_19_85
*568 TAP_TAPCELL_ROW_1_48
*569 TAP_TAPCELL_ROW_1_49
*570 TAP_TAPCELL_ROW_20_86
*571 TAP_TAPCELL_ROW_20_87
*572 TAP_TAPCELL_ROW_21_88
*573 TAP_TAPCELL_ROW_21_89
*574 TAP_TAPCELL_ROW_21_90
*575 TAP_TAPCELL_ROW_21_91
*576 TAP_TAPCELL_ROW_2_50
*577 TAP_TAPCELL_ROW_2_51
*578 TAP_TAPCELL_ROW_3_52
*579 TAP_TAPCELL_ROW_3_53
*580 TAP_TAPCELL_ROW_4_54
*581 TAP_TAPCELL_ROW_4_55
*582 TAP_TAPCELL_ROW_5_56
*583 TAP_TAPCELL_ROW_5_57
*584 TAP_TAPCELL_ROW_6_58
*585 TAP_TAPCELL_ROW_6_59
*586 TAP_TAPCELL_ROW_7_60
*587 TAP_TAPCELL_ROW_7_61
*588 TAP_TAPCELL_ROW_8_62
*589 TAP_TAPCELL_ROW_8_63
*590 TAP_TAPCELL_ROW_9_64
*591 TAP_TAPCELL_ROW_9_65
*592 _176_
*593 _177_
*594 _178_
*595 _179_
*596 _180_
*597 _181_
*598 _182_
*599 _183_
*600 _184_
*601 _185_
*602 _186_
*603 _187_
*604 _188_
*605 _189_
*606 _190_
*607 _191_
*608 _192_
*609 _193_
*610 _194_
*611 _195_
*612 _196_
*613 _197_
*614 _198_
*615 _199_
*616 _200_
*617 _201_
*618 _202_
*619 _203_
*620 _204_
*621 _205_
*622 _206_
*623 _207_
*624 _208_
*625 _209_
*626 _210_
*627 _211_
*628 _212_
*629 _213_
*630 _214_
*631 _215_
*632 _216_
*633 _217_
*634 _218_
*635 _219_
*636 _220_
*637 _221_
*638 _222_
*639 _223_
*640 _224_
*641 _225_
*642 _226_
*643 _227_
*644 _228_
*645 _229_
*646 _230_
*647 _231_
*648 _232_
*649 _233_
*650 _234_
*651 _235_
*652 _236_
*653 _237_
*654 _238_
*655 _239_
*656 _240_
*657 _241_
*658 _242_
*659 _243_
*660 _244_
*661 _245_
*662 _246_
*663 _247_
*664 _248_
*665 _249_
*666 _250_
*667 _251_
*668 _252_
*669 _253_
*670 _254_
*671 _255_
*672 _256_
*673 _257_
*674 _258_
*675 _259_
*676 _260_
*677 _261_
*678 _262_
*679 _263_
*680 _264_
*681 _265_
*682 _266_
*683 _267_
*684 _268_
*685 _269_
*686 _270_
*687 _271_
*688 _272_
*689 _273_
*690 _274_
*691 _275_
*692 _276_
*693 _277_
*694 _278_
*695 _279_
*696 _280_
*697 _281_
*698 _282_
*699 _283_
*700 _284_
*701 _285_
*702 _286_
*703 _287_
*704 _288_
*705 _289_
*706 _290_
*707 _291_
*708 _292_
*709 _293_
*710 _294_
*711 _295_
*712 _296_
*713 _297_
*714 _298_
*715 _299_
*716 _300_
*717 _301_
*718 _302_
*719 _303_
*720 _304_
*721 _305_
*722 _306_
*723 _307_
*724 _308_
*725 _309_
*726 _310_
*727 _311_
*728 _312_
*729 _313_
*730 _314_
*731 _315_
*732 _316_
*733 _317_
*734 _318_
*735 _319_
*736 _320_
*737 _321_
*738 _322_
*739 _323_
*740 _324_
*741 _325_
*742 _326_
*743 _327_
*744 _328_
*745 _329_
*746 _330_
*747 _331_
*748 _332_
*749 _333_
*750 _334_
*751 _335_
*752 _336_
*753 _337_
*754 _338_
*755 _339_
*756 _340_
*757 _341_
*758 _342_
*759 _343_
*760 _344_
*761 _345_
*762 _346_
*763 _347_
*764 _348_
*765 _349_
*766 _350_
*767 _351_
*768 _352_
*769 _353_
*770 _354_
*771 _355_
*772 _356_
*773 _357_
*774 _358_
*775 _359_
*776 _360_
*777 _361_
*778 _362_
*779 _363_
*780 _364_
*781 _365_
*782 _366_
*783 _367_
*784 _368_
*785 clkbuf_0_clk
*786 clkbuf_1_0__f_clk
*787 clkbuf_1_1__f_clk
*788 clkload0
*789 clone4
*790 fanout19
*791 fanout20
*792 fanout21
*793 fanout22
*794 input1
*795 input10
*796 input11
*797 input12
*798 input13
*799 input14
*800 input15
*801 input16
*802 input17
*803 input2
*804 input3
*805 input4
*806 input5
*807 input6
*808 input7
*809 input8
*810 input9
*811 output18
*812 rebuffer1
*813 rebuffer2
*814 rebuffer3
*815 rebuffer5
*816 rebuffer6
*817 rebuffer7

*PORTS
clk I
out O
psc[0] I
psc[10] I
psc[11] I
psc[12] I
psc[13] I
psc[14] I
psc[15] I
psc[1] I
psc[2] I
psc[3] I
psc[4] I
psc[5] I
psc[6] I
psc[7] I
psc[8] I
psc[9] I
rst I

*D_NET *3 0.0070238
*CONN
*P clk I
*I *785:A I *D sky130_fd_sc_hd__clkbuf_16
*CAP
1 clk 0.00299526
2 *785:A 0.00299526
3 *785:A *744:B1_N 0
4 *785:A *751:A1 7.83174e-05
5 *785:A *751:B1 9.67224e-05
6 *785:A *38:12 0.000113727
7 *785:A *112:18 9.01334e-05
8 *785:A *136:10 0
9 *785:A *194:29 0.00023963
10 *785:A *230:100 0.000414748
*RES
1 clk *785:A 34.5329 
*END

*D_NET *4 0.0012175
*CONN
*P out O
*I *811:X O *D sky130_fd_sc_hd__buf_2
*CAP
1 out 0.000570428
2 *811:X 0.000570428
3 out *768:RESET_B 0
4 out *808:A 0
5 out *38:12 0
6 out *242:31 7.6644e-05
*RES
1 *811:X out 24.0679 
*END

*D_NET *5 0.000727004
*CONN
*P psc[0] I
*I *794:A I *D sky130_fd_sc_hd__clkbuf_1
*CAP
1 psc[0] 0.000242751
2 *794:A 0.000242751
3 *794:A *637:A1 3.17163e-05
4 *794:A *809:A 7.3448e-05
5 *794:A *810:A 7.88537e-05
6 *794:A *69:16 4.09488e-06
7 *794:A *217:8 5.33882e-05
*RES
1 psc[0] *794:A 20.7829 
*END

*D_NET *6 0.000936378
*CONN
*P psc[10] I
*I *803:A I *D sky130_fd_sc_hd__buf_1
*CAP
1 psc[10] 0.000468189
2 *803:A 0.000468189
3 *803:A *804:A 0
*RES
1 psc[10] *803:A 23.175 
*END

*D_NET *7 0.00107924
*CONN
*P psc[11] I
*I *804:A I *D sky130_fd_sc_hd__buf_1
*CAP
1 psc[11] 0.000499255
2 *804:A 0.000499255
3 *804:A *801:A 0
4 *804:A *228:23 8.07313e-05
5 *803:A *804:A 0
*RES
1 psc[11] *804:A 23.8714 
*END

*D_NET *8 0.000745024
*CONN
*P psc[12] I
*I *805:A I *D sky130_fd_sc_hd__buf_1
*CAP
1 psc[12] 0.000372512
2 *805:A 0.000372512
3 *805:A *704:A 0
4 *805:A *704:B 0
5 *805:A *705:A 0
*RES
1 psc[12] *805:A 22.3017 
*END

*D_NET *9 0.000817553
*CONN
*P psc[13] I
*I *806:A I *D sky130_fd_sc_hd__buf_1
*CAP
1 psc[13] 0.000408777
2 *806:A 0.000408777
3 *806:A *807:A 0
*RES
1 psc[13] *806:A 21.9607 
*END

*D_NET *10 0.00112318
*CONN
*P psc[14] I
*I *807:A I *D sky130_fd_sc_hd__dlymetal6s2s_1
*CAP
1 psc[14] 0.00048287
2 *807:A 0.00048287
3 *807:A *808:A 0
4 *807:A *242:8 5.52302e-05
5 *807:A *242:31 0.000102207
6 *806:A *807:A 0
*RES
1 psc[14] *807:A 23.3714 
*END

*D_NET *11 0.00149442
*CONN
*P psc[15] I
*I *808:A I *D sky130_fd_sc_hd__buf_1
*CAP
1 psc[15] 0.000546724
2 *808:A 0.000546724
3 *808:A *603:A 5.41794e-05
4 *808:A *653:B 0.000137983
5 *808:A *654:B 0.000137983
6 *808:A *657:A 4.1331e-06
7 *808:A *38:12 6.66939e-05
8 *808:A *86:8 0
9 out *808:A 0
10 *807:A *808:A 0
*RES
1 psc[15] *808:A 25.3893 
*END

*D_NET *12 0.00100717
*CONN
*P psc[1] I
*I *809:A I *D sky130_fd_sc_hd__buf_6
*CAP
1 psc[1] 0.00029472
2 *809:A 0.00029472
3 *809:A *795:A 0.000153929
4 *809:A *810:A 0
5 *809:A *66:19 4.85373e-05
6 *809:A *69:16 0.000141815
7 *794:A *809:A 7.3448e-05
*RES
1 psc[1] *809:A 21.7657 
*END

*D_NET *13 0.00053973
*CONN
*P psc[2] I
*I *810:A I *D sky130_fd_sc_hd__clkbuf_1
*CAP
1 psc[2] 0.000230438
2 *810:A 0.000230438
3 *810:A *201:75 0
4 *794:A *810:A 7.88537e-05
5 *809:A *810:A 0
*RES
1 psc[2] *810:A 18.267 
*END

*D_NET *14 0.00123128
*CONN
*P psc[3] I
*I *795:A I *D sky130_fd_sc_hd__buf_1
*CAP
1 psc[3] 0.000370811
2 *795:A 0.000370811
3 *795:A *635:A2 0.000265447
4 *795:A *66:19 7.02772e-05
5 *809:A *795:A 0.000153929
*RES
1 psc[3] *795:A 21.8021 
*END

*D_NET *15 0.00103652
*CONN
*P psc[4] I
*I *796:A I *D sky130_fd_sc_hd__buf_6
*CAP
1 psc[4] 0.000500786
2 *796:A 0.000500786
3 *796:A *797:A 0
4 *796:A *219:12 6.05161e-06
5 *796:A *223:10 2.89016e-05
*RES
1 psc[4] *796:A 23.4607 
*END

*D_NET *16 0.00113398
*CONN
*P psc[5] I
*I *797:A I *D sky130_fd_sc_hd__buf_1
*CAP
1 psc[5] 0.000516511
2 *797:A 0.000516511
3 *797:A *597:A 0.00010096
4 *797:A *800:A 0
5 *796:A *797:A 0
*RES
1 psc[5] *797:A 24.1214 
*END

*D_NET *17 0.00100523
*CONN
*P psc[6] I
*I *798:A I *D sky130_fd_sc_hd__buf_6
*CAP
1 psc[6] 0.000502616
2 *798:A 0.000502616
3 *798:A *799:A 0
4 *798:A *800:A 0
*RES
1 psc[6] *798:A 23.4607 
*END

*D_NET *18 0.000962667
*CONN
*P psc[7] I
*I *799:A I *D sky130_fd_sc_hd__buf_1
*CAP
1 psc[7] 0.000479488
2 *799:A 0.000479488
3 *799:A *801:A 0
4 *799:A *222:10 3.69047e-06
5 *798:A *799:A 0
*RES
1 psc[7] *799:A 23.05 
*END

*D_NET *19 0.00133005
*CONN
*P psc[8] I
*I *800:A I *D sky130_fd_sc_hd__clkbuf_2
*CAP
1 psc[8] 0.000572079
2 *800:A 0.000572079
3 *800:A *597:A 0.000154027
4 *800:A *221:16 3.18676e-05
5 *797:A *800:A 0
6 *798:A *800:A 0
*RES
1 psc[8] *800:A 25.2107 
*END

*D_NET *20 0.000967279
*CONN
*P psc[9] I
*I *801:A I *D sky130_fd_sc_hd__clkbuf_1
*CAP
1 psc[9] 0.000467705
2 *801:A 0.000467705
3 *801:A *228:23 3.18676e-05
4 *799:A *801:A 0
5 *804:A *801:A 0
*RES
1 psc[9] *801:A 23.05 
*END

*D_NET *21 0.000370446
*CONN
*P rst I
*I *802:A I *D sky130_fd_sc_hd__buf_1
*CAP
1 rst 0.000185223
2 *802:A 0.000185223
*RES
1 rst *802:A 18.0508 
*END

*D_NET *22 0.000396873
*CONN
*I *769:D I *D sky130_fd_sc_hd__dfrtp_2
*I *671:X O *D sky130_fd_sc_hd__and2_4
*CAP
1 *769:D 8.58901e-05
2 *671:X 8.58901e-05
3 *769:D *671:A 9.25014e-06
4 *769:D *210:36 9.1235e-05
5 *769:D *230:6 2.89114e-05
6 *769:D *237:20 9.56968e-05
*RES
1 *671:X *769:D 30.3857 
*END

*D_NET *23 0.00100962
*CONN
*I *779:D I *D sky130_fd_sc_hd__dfrtp_4
*I *700:X O *D sky130_fd_sc_hd__and3_1
*CAP
1 *779:D 0.00029417
2 *700:X 0.00029417
3 *779:D *700:B 7.6644e-05
4 *779:D *700:C 0.0001827
5 *779:D *779:CLK 0
6 *779:D *202:59 7.8327e-05
7 *779:D *216:10 4.29272e-05
8 *779:D *216:45 4.06782e-05
*RES
1 *700:X *779:D 33.4393 
*END

*D_NET *24 0.000615799
*CONN
*I *780:D I *D sky130_fd_sc_hd__dfrtp_2
*I *703:X O *D sky130_fd_sc_hd__and3b_1
*CAP
1 *780:D 0.00014443
2 *703:X 0.00014443
3 *780:D *709:C 0.000177941
4 *780:D *122:14 9.56968e-05
5 *780:D *235:30 5.33005e-05
*RES
1 *703:X *780:D 31.2071 
*END

*D_NET *25 0.000387722
*CONN
*I *781:D I *D sky130_fd_sc_hd__dfrtp_2
*I *706:X O *D sky130_fd_sc_hd__and3b_1
*CAP
1 *781:D 0.000130081
2 *706:X 0.000130081
3 *781:D *709:C 4.25716e-05
4 *781:D *782:CLK 4.48113e-05
5 *781:D *790:A 4.01768e-05
*RES
1 *706:X *781:D 30.1893 
*END

*D_NET *26 0.000295165
*CONN
*I *782:D I *D sky130_fd_sc_hd__dfrtp_1
*I *709:X O *D sky130_fd_sc_hd__and3b_1
*CAP
1 *782:D 0.00012471
2 *709:X 0.00012471
3 *782:D *709:C 4.57445e-05
*RES
1 *709:X *782:D 29.7786 
*END

*D_NET *27 0.00157745
*CONN
*I *783:D I *D sky130_fd_sc_hd__dfrtp_2
*I *712:X O *D sky130_fd_sc_hd__and3b_1
*CAP
1 *783:D 0.000638866
2 *712:X 0.000638866
3 *783:D *606:A 0
4 *783:D *783:CLK 7.43578e-06
5 *783:D *783:RESET_B 0
6 *783:D *811:A 0
7 *783:D *206:10 0.000173367
8 *783:D *206:38 0.00011891
*RES
1 *712:X *783:D 39.4929 
*END

*D_NET *28 0.00040202
*CONN
*I *784:D I *D sky130_fd_sc_hd__dfrtp_1
*I *715:X O *D sky130_fd_sc_hd__and3_1
*CAP
1 *784:D 0.000145003
2 *715:X 0.000145003
3 *784:D *715:B 3.92854e-05
4 *784:D *200:60 0
5 *784:D *200:77 7.27294e-05
*RES
1 *715:X *784:D 29.908 
*END

*D_NET *29 0.00104072
*CONN
*I *770:D I *D sky130_fd_sc_hd__dfrtp_2
*I *673:X O *D sky130_fd_sc_hd__and3_1
*CAP
1 *770:D 0.000341382
2 *673:X 0.000341382
3 *770:D *673:B 6.39262e-05
4 *770:D *673:C 5.10822e-05
5 *770:D *770:CLK 0.000100625
6 *770:D *210:36 0.000142327
*RES
1 *673:X *770:D 33.9795 
*END

*D_NET *30 0.000474495
*CONN
*I *771:D I *D sky130_fd_sc_hd__dfrtp_1
*I *676:X O *D sky130_fd_sc_hd__and3b_1
*CAP
1 *771:D 0.000206448
2 *676:X 0.000206448
3 *771:D *676:C 5.80706e-06
4 *771:D *679:B 5.57914e-05
5 *771:D *771:RESET_B 0
6 *771:D *209:14 0
*RES
1 *676:X *771:D 31.3143 
*END

*D_NET *31 0.000841932
*CONN
*I *772:D I *D sky130_fd_sc_hd__dfrtp_2
*I *679:X O *D sky130_fd_sc_hd__and3b_1
*CAP
1 *772:D 0.000319555
2 *679:X 0.000319555
3 *772:D *678:B 2.89016e-05
4 *772:D *772:CLK 0.000173921
*RES
1 *679:X *772:D 32.9214 
*END

*D_NET *32 0.000842411
*CONN
*I *773:D I *D sky130_fd_sc_hd__dfrtp_4
*I *682:X O *D sky130_fd_sc_hd__and3_1
*CAP
1 *773:D 0.000337282
2 *682:X 0.000337282
3 *773:D *679:B 2.56601e-05
4 *773:D *682:C 1.40415e-05
5 *773:D *200:58 0.000128146
*RES
1 *682:X *773:D 32.2429 
*END

*D_NET *33 0.00114976
*CONN
*I *774:D I *D sky130_fd_sc_hd__dfrtp_2
*I *685:X O *D sky130_fd_sc_hd__and3b_1
*CAP
1 *774:D 0.00031575
2 *685:X 0.00031575
3 *774:D *683:B 2.15245e-05
4 *774:D *685:B 5.20359e-06
5 *774:D *758:A 5.33433e-05
6 *774:D *770:CLK 7.02611e-05
7 *774:D *774:RESET_B 0.000257213
8 *774:D *787:A 5.33005e-05
9 *774:D *200:12 1.17968e-05
10 *774:D *211:51 4.11538e-05
11 *774:D *211:62 4.46186e-06
*RES
1 *685:X *774:D 33.2964 
*END

*D_NET *34 0.000561647
*CONN
*I *775:D I *D sky130_fd_sc_hd__dfrtp_1
*I *688:X O *D sky130_fd_sc_hd__and3b_1
*CAP
1 *775:D 7.28073e-05
2 *688:X 7.28073e-05
3 *775:D *687:B 0.000100831
4 *775:D *688:C 9.91086e-05
5 *775:D *775:CLK 0.0001399
6 *775:D *235:75 7.61932e-05
*RES
1 *688:X *775:D 30.2964 
*END

*D_NET *35 0.00111786
*CONN
*I *776:D I *D sky130_fd_sc_hd__dfrtp_2
*I *691:X O *D sky130_fd_sc_hd__and3b_1
*CAP
1 *776:D 0.000281702
2 *691:X 0.000281702
3 *776:D *646:B 9.76689e-05
4 *776:D *670:A2 0
5 *776:D *689:A 0.000148903
6 *776:D *689:B 0.000168939
7 *776:D *214:10 0.000138946
*RES
1 *691:X *776:D 33.1357 
*END

*D_NET *36 0.00115015
*CONN
*I *777:D I *D sky130_fd_sc_hd__dfrtp_1
*I *694:X O *D sky130_fd_sc_hd__and3b_1
*CAP
1 *777:D 0.000317623
2 *694:X 0.000317623
3 *777:D *692:B 6.94406e-05
4 *777:D *694:B 0.00022117
5 *777:D *694:C 2.84109e-05
6 *777:D *777:CLK 0
7 *777:D *116:14 0
8 *777:D *177:23 3.07435e-05
9 *777:D *230:24 9.66697e-05
10 *777:D *235:20 6.12668e-05
11 *777:D *235:30 7.20217e-06
*RES
1 *694:X *777:D 34.6357 
*END

*D_NET *37 0.000169687
*CONN
*I *778:D I *D sky130_fd_sc_hd__dfrtp_2
*I *697:X O *D sky130_fd_sc_hd__and3b_1
*CAP
1 *778:D 8.48433e-05
2 *697:X 8.48433e-05
3 *778:D *199:54 0
4 *778:D *202:16 0
*RES
1 *697:X *778:D 28.9393 
*END

*D_NET *38 0.00487723
*CONN
*I *768:D I *D sky130_fd_sc_hd__dfrtp_1
*I *751:X O *D sky130_fd_sc_hd__o22a_1
*CAP
1 *768:D 0
2 *751:X 0.00108244
3 *38:12 0.00108244
4 *38:12 *603:A 7.91281e-05
5 *38:12 *604:A 0.000462113
6 *38:12 *653:B 7.25392e-05
7 *38:12 *654:B 1.37292e-05
8 *38:12 *657:B 0
9 *38:12 *659:B 5.59013e-05
10 *38:12 *669:A1 0
11 *38:12 *717:C1 1.37292e-05
12 *38:12 *718:B1 0
13 *38:12 *720:B 8.15939e-05
14 *38:12 *751:A2 0
15 *38:12 *751:B2 1.58163e-05
16 *38:12 *776:RESET_B 0.000100831
17 *38:12 *132:10 1.37292e-05
18 *38:12 *134:12 0.000309708
19 *38:12 *136:10 0.000834429
20 *38:12 *178:10 9.01143e-05
21 *38:12 *205:27 0
22 *38:12 *207:30 0.000222878
23 *38:12 *230:100 0.000165686
24 *38:12 *242:31 0
25 *38:12 *242:42 0
26 out *38:12 0
27 *785:A *38:12 0.000113727
28 *808:A *38:12 6.66939e-05
*RES
1 *751:X *38:12 47.8 
2 *38:12 *768:D 9.3 
*END

*D_NET *39 0.000274008
*CONN
*I *768:RESET_B I *D sky130_fd_sc_hd__dfrtp_1
*I *606:Y O *D sky130_fd_sc_hd__inv_2
*CAP
1 *768:RESET_B 0.000124169
2 *606:Y 0.000124169
3 *768:RESET_B *811:A 2.56694e-05
4 out *768:RESET_B 0
*RES
1 *606:Y *768:RESET_B 20.55 
*END

*D_NET *40 0.000358009
*CONN
*I *769:RESET_B I *D sky130_fd_sc_hd__dfrtp_2
*I *752:Y O *D sky130_fd_sc_hd__inv_2
*CAP
1 *769:RESET_B 0.000158113
2 *752:Y 0.000158113
3 *769:RESET_B *201:10 4.17828e-05
*RES
1 *752:Y *769:RESET_B 11.8268 
*END

*D_NET *41 0.00119523
*CONN
*I *770:RESET_B I *D sky130_fd_sc_hd__dfrtp_2
*I *753:Y O *D sky130_fd_sc_hd__inv_2
*CAP
1 *770:RESET_B 0.000383327
2 *753:Y 0.000383327
3 *770:RESET_B *752:A 0.000179656
4 *770:RESET_B *792:A 0.00021788
5 *770:RESET_B *208:8 3.10397e-05
*RES
1 *753:Y *770:RESET_B 27.0054 
*END

*D_NET *42 0.0015559
*CONN
*I *771:RESET_B I *D sky130_fd_sc_hd__dfrtp_1
*I *754:Y O *D sky130_fd_sc_hd__inv_2
*CAP
1 *771:RESET_B 0.0005244
2 *754:Y 0.0005244
3 *771:RESET_B *678:B 4.16114e-05
4 *771:RESET_B *679:B 0.000445577
5 *771:RESET_B *209:14 1.99099e-05
6 *771:D *771:RESET_B 0
*RES
1 *754:Y *771:RESET_B 26.1214 
*END

*D_NET *43 0.000484634
*CONN
*I *772:RESET_B I *D sky130_fd_sc_hd__dfrtp_2
*I *755:Y O *D sky130_fd_sc_hd__inv_2
*CAP
1 *772:RESET_B 0.000196361
2 *755:Y 0.000196361
3 *772:RESET_B *792:A 5.33882e-05
4 *772:RESET_B *210:8 3.8524e-05
*RES
1 *755:Y *772:RESET_B 21.7554 
*END

*D_NET *44 0.000269061
*CONN
*I *773:RESET_B I *D sky130_fd_sc_hd__dfrtp_4
*I *756:Y O *D sky130_fd_sc_hd__inv_2
*CAP
1 *773:RESET_B 0.00013453
2 *756:Y 0.00013453
3 *773:RESET_B *678:B 0
*RES
1 *756:Y *773:RESET_B 20.55 
*END

*D_NET *45 0.00168826
*CONN
*I *774:RESET_B I *D sky130_fd_sc_hd__dfrtp_2
*I *757:Y O *D sky130_fd_sc_hd__inv_2
*CAP
1 *774:RESET_B 0.000411168
2 *757:Y 0.000411168
3 *774:RESET_B *685:B 7.6644e-05
4 *774:RESET_B *715:A 6.04987e-05
5 *774:RESET_B *758:A 5.26091e-05
6 *774:RESET_B *770:CLK 0.000104927
7 *774:RESET_B *200:12 7.83587e-05
8 *774:RESET_B *211:36 0.00010096
9 *774:RESET_B *211:51 0
10 *774:RESET_B *212:14 0.000134714
11 *774:D *774:RESET_B 0.000257213
*RES
1 *757:Y *774:RESET_B 27.0232 
*END

*D_NET *46 0.000336925
*CONN
*I *775:RESET_B I *D sky130_fd_sc_hd__dfrtp_1
*I *758:Y O *D sky130_fd_sc_hd__inv_2
*CAP
1 *775:RESET_B 0.000107793
2 *758:Y 0.000107793
3 *775:RESET_B *671:B 0.000121339
*RES
1 *758:Y *775:RESET_B 11.4161 
*END

*D_NET *47 0.000401767
*CONN
*I *776:RESET_B I *D sky130_fd_sc_hd__dfrtp_2
*I *759:Y O *D sky130_fd_sc_hd__inv_2
*CAP
1 *776:RESET_B 8.10268e-05
2 *759:Y 8.10268e-05
3 *776:RESET_B *606:A 2.89016e-05
4 *776:RESET_B *230:100 0.000109981
5 *38:12 *776:RESET_B 0.000100831
*RES
1 *759:Y *776:RESET_B 20.175 
*END

*D_NET *48 0.000422879
*CONN
*I *777:RESET_B I *D sky130_fd_sc_hd__dfrtp_1
*I *760:Y O *D sky130_fd_sc_hd__inv_2
*CAP
1 *777:RESET_B 0.000108163
2 *760:Y 0.000108163
3 *777:RESET_B *692:B 3.02581e-06
4 *777:RESET_B *215:6 1.68581e-05
5 *777:RESET_B *230:14 0.000186669
*RES
1 *760:Y *777:RESET_B 11.4161 
*END

*D_NET *49 0.000998609
*CONN
*I *778:RESET_B I *D sky130_fd_sc_hd__dfrtp_2
*I *761:Y O *D sky130_fd_sc_hd__inv_2
*CAP
1 *778:RESET_B 0.000282981
2 *761:Y 0.000282981
3 *778:RESET_B *700:A 8.6229e-06
4 *778:RESET_B *700:B 4.70821e-05
5 *778:RESET_B *721:A1 1.32056e-05
6 *778:RESET_B *721:B2 3.41517e-06
7 *778:RESET_B *762:A 0.000158925
8 *778:RESET_B *202:59 0.000143507
9 *778:RESET_B *202:87 5.789e-05
10 *778:RESET_B *216:10 0
*RES
1 *761:Y *778:RESET_B 24.2375 
*END

*D_NET *50 0.00106121
*CONN
*I *779:RESET_B I *D sky130_fd_sc_hd__dfrtp_4
*I *762:Y O *D sky130_fd_sc_hd__inv_2
*CAP
1 *779:RESET_B 0.000392973
2 *762:Y 0.000392973
3 *779:RESET_B *779:CLK 9.73266e-05
4 *779:RESET_B *202:63 0.000177941
5 *779:RESET_B *215:63 0
*RES
1 *762:Y *779:RESET_B 25.5411 
*END

*D_NET *51 0.000479051
*CONN
*I *780:RESET_B I *D sky130_fd_sc_hd__dfrtp_2
*I *763:Y O *D sky130_fd_sc_hd__inv_2
*CAP
1 *780:RESET_B 0.000108289
2 *763:Y 0.000108289
3 *780:RESET_B *199:19 5.71472e-05
4 *780:RESET_B *199:54 0.000179656
5 *780:RESET_B *230:24 2.56694e-05
*RES
1 *763:Y *780:RESET_B 21.0857 
*END

*D_NET *52 0.000362974
*CONN
*I *781:RESET_B I *D sky130_fd_sc_hd__dfrtp_2
*I *764:Y O *D sky130_fd_sc_hd__inv_2
*CAP
1 *781:RESET_B 8.63368e-05
2 *764:Y 8.63368e-05
3 *781:RESET_B *765:A 3.25247e-05
4 *781:RESET_B *789:A 0.000102545
5 *781:RESET_B *240:14 5.52302e-05
*RES
1 *764:Y *781:RESET_B 20.175 
*END

*D_NET *53 0.000801929
*CONN
*I *782:RESET_B I *D sky130_fd_sc_hd__dfrtp_1
*I *765:Y O *D sky130_fd_sc_hd__inv_2
*CAP
1 *782:RESET_B 0.000257071
2 *765:Y 0.000257071
3 *782:RESET_B *647:A 2.59355e-05
4 *782:RESET_B *765:A 2.27416e-05
5 *782:RESET_B *126:10 0.00017309
6 *782:RESET_B *204:42 1.76039e-05
7 *782:RESET_B *205:8 1.15172e-05
8 *782:RESET_B *205:14 2.34204e-05
9 *782:RESET_B *205:53 1.34792e-05
*RES
1 *765:Y *782:RESET_B 23.2018 
*END

*D_NET *54 0.000299588
*CONN
*I *783:RESET_B I *D sky130_fd_sc_hd__dfrtp_2
*I *766:Y O *D sky130_fd_sc_hd__inv_2
*CAP
1 *783:RESET_B 0.000122179
2 *766:Y 0.000122179
3 *783:RESET_B *768:CLK 0
4 *783:RESET_B *206:10 0
5 *783:RESET_B *207:18 5.52302e-05
6 *783:D *783:RESET_B 0
*RES
1 *766:Y *783:RESET_B 20.175 
*END

*D_NET *55 0.000347662
*CONN
*I *784:RESET_B I *D sky130_fd_sc_hd__dfrtp_1
*I *767:Y O *D sky130_fd_sc_hd__inv_2
*CAP
1 *784:RESET_B 0.000133968
2 *767:Y 0.000133968
3 *784:RESET_B *714:A 2.56694e-05
4 *784:RESET_B *207:8 1.20135e-05
5 *784:RESET_B *207:18 4.20435e-05
*RES
1 *767:Y *784:RESET_B 21.0232 
*END

*D_NET *56 0.00160444
*CONN
*I *626:B I *D sky130_fd_sc_hd__xnor2_1
*I *625:B I *D sky130_fd_sc_hd__or2_1
*I *624:X O *D sky130_fd_sc_hd__or3_1
*CAP
1 *626:B 0.00019317
2 *625:B 0.000158377
3 *624:X 0.000131658
4 *56:6 0.000483205
5 *625:B *222:25 0.000253864
6 *626:B *598:A 9.03451e-05
7 *626:B *628:B2 0.000183382
8 *626:B *184:8 0
9 *626:B *214:54 2.11419e-05
10 *56:6 *610:C 8.43535e-06
11 *56:6 *182:64 6.05161e-06
12 *56:6 *222:25 7.48091e-05
*RES
1 *624:X *56:6 11.0679 
2 *56:6 *625:B 12.4429 
3 *56:6 *626:B 22.3714 
*END

*D_NET *57 0.000588812
*CONN
*I *627:A2 I *D sky130_fd_sc_hd__a21oi_1
*I *625:X O *D sky130_fd_sc_hd__or2_1
*CAP
1 *627:A2 0.000169927
2 *625:X 0.000169927
3 *627:A2 *612:B 7.72966e-05
4 *627:A2 *613:B 2.94055e-05
5 *627:A2 *645:B1 1.00733e-05
6 *627:A2 *813:A 1.83828e-05
7 *627:A2 *182:64 2.06112e-05
8 *627:A2 *184:38 9.31893e-05
*RES
1 *625:X *627:A2 31.2607 
*END

*D_NET *58 0.00120759
*CONN
*I *630:A2 I *D sky130_fd_sc_hd__o22a_1
*I *628:A2 I *D sky130_fd_sc_hd__a22o_1
*I *626:Y O *D sky130_fd_sc_hd__xnor2_1
*CAP
1 *630:A2 7.61591e-05
2 *628:A2 4.13565e-05
3 *626:Y 6.9123e-05
4 *58:10 0.000186639
5 *628:A2 *628:A1 0.000132257
6 *628:A2 *645:A1 5.03772e-05
7 *630:A2 *628:A1 4.08637e-05