*SPEF "ieee 1481-1999"
*DESIGN "freq_psc"
*DATE "06:32:14 Saturday October 26, 2024"
*VENDOR "The OpenROAD Project"
*PROGRAM "OpenROAD"
*VERSION "edf00dff99f6c40d67a30c0e22a8191c5d2ed9d6"
*DESIGN_FLOW "NAME_SCOPE LOCAL" "PIN_CAP NONE"
*DIVIDER /
*DELIMITER :
*BUS_DELIMITER []
*T_UNIT 1 NS
*C_UNIT 1 PF
*R_UNIT 1 OHM
*L_UNIT 1 HENRY

*NAME_MAP
*3 clk
*4 out
*5 psc[0]
*6 psc[1]
*7 psc[2]
*8 psc[3]
*9 psc[4]
*10 psc[5]
*11 psc[6]
*12 psc[7]
*13 rst
*14 _000_
*15 _001_
*16 _002_
*17 _003_
*18 _004_
*19 _005_
*20 _006_
*21 _007_
*22 _008_
*23 _009_
*24 _010_
*25 _011_
*26 _012_
*27 _013_
*28 _014_
*29 _015_
*30 _016_
*31 _017_
*32 _018_
*33 _019_
*34 _020_
*35 _021_
*36 _022_
*37 _023_
*38 _024_
*39 _025_
*40 _026_
*41 _027_
*42 _028_
*43 _029_
*44 _030_
*45 _031_
*46 _032_
*47 _033_
*48 _034_
*49 _035_
*50 _036_
*51 _037_
*52 _038_
*53 _039_
*54 _040_
*55 _041_
*56 _042_
*57 _043_
*58 _044_
*59 _045_
*60 _046_
*61 _047_
*62 _048_
*63 _049_
*64 _050_
*65 _051_
*66 _052_
*67 _053_
*68 _054_
*69 _055_
*70 clknet_0_clk
*71 clknet_1_0__leaf_clk
*72 clknet_1_1__leaf_clk
*73 net1
*74 net10
*75 net11
*76 net12
*77 net13
*78 net2
*79 net3
*80 net4
*81 net5
*82 net6
*83 net7
*84 net8
*85 net9
*86 psc_cnt\[0\]
*87 psc_cnt\[1\]
*88 psc_cnt\[2\]
*89 psc_cnt\[3\]
*90 psc_cnt\[4\]
*91 psc_cnt\[5\]
*92 psc_cnt\[6\]
*93 psc_cnt\[7\]
*94 FILLER_0_15
*95 FILLER_0_27
*96 FILLER_0_29
*97 FILLER_0_3
*98 FILLER_0_41
*99 FILLER_0_53
*100 FILLER_0_57
*101 FILLER_0_70
*102 FILLER_10_29
*103 FILLER_10_36
*104 FILLER_10_45
*105 FILLER_10_55
*106 FILLER_10_70
*107 FILLER_11_15
*108 FILLER_11_3
*109 FILLER_11_57
*110 FILLER_11_69
*111 FILLER_11_75
*112 FILLER_12_15
*113 FILLER_12_19
*114 FILLER_12_26
*115 FILLER_12_3
*116 FILLER_12_46
*117 FILLER_12_54
*118 FILLER_12_57
*119 FILLER_12_62
*120 FILLER_12_74
*121 FILLER_1_14
*122 FILLER_1_26
*123 FILLER_1_30
*124 FILLER_1_60
*125 FILLER_1_7
*126 FILLER_2_58
*127 FILLER_2_72
*128 FILLER_3_25
*129 FILLER_3_3
*130 FILLER_3_32
*131 FILLER_3_60
*132 FILLER_3_69
*133 FILLER_3_75
*134 FILLER_3_9
*135 FILLER_4_17
*136 FILLER_4_21
*137 FILLER_4_27
*138 FILLER_4_29
*139 FILLER_4_3
*140 FILLER_4_35
*141 FILLER_4_50
*142 FILLER_4_56
*143 FILLER_4_73
*144 FILLER_4_9
*145 FILLER_5_24
*146 FILLER_5_3
*147 FILLER_5_55
*148 FILLER_5_60
*149 FILLER_5_72
*150 FILLER_6_16
*151 FILLER_6_29
*152 FILLER_6_41
*153 FILLER_6_53
*154 FILLER_6_59
*155 FILLER_6_9
*156 FILLER_7_11
*157 FILLER_7_19
*158 FILLER_7_46
*159 FILLER_7_51
*160 FILLER_7_55
*161 FILLER_7_57
*162 FILLER_7_66
*163 FILLER_7_74
*164 FILLER_8_29
*165 FILLER_8_70
*166 FILLER_9_14
*167 FILLER_9_22
*168 FILLER_9_28
*169 FILLER_9_3
*170 FILLER_9_44
*171 FILLER_9_57
*172 FILLER_9_61
*173 PHY_EDGE_ROW_0_Left_13
*174 PHY_EDGE_ROW_0_Right_0
*175 PHY_EDGE_ROW_10_Left_23
*176 PHY_EDGE_ROW_10_Right_10
*177 PHY_EDGE_ROW_11_Left_24
*178 PHY_EDGE_ROW_11_Right_11
*179 PHY_EDGE_ROW_12_Left_25
*180 PHY_EDGE_ROW_12_Right_12
*181 PHY_EDGE_ROW_1_Left_14
*182 PHY_EDGE_ROW_1_Right_1
*183 PHY_EDGE_ROW_2_Left_15
*184 PHY_EDGE_ROW_2_Right_2
*185 PHY_EDGE_ROW_3_Left_16
*186 PHY_EDGE_ROW_3_Right_3
*187 PHY_EDGE_ROW_4_Left_17
*188 PHY_EDGE_ROW_4_Right_4
*189 PHY_EDGE_ROW_5_Left_18
*190 PHY_EDGE_ROW_5_Right_5
*191 PHY_EDGE_ROW_6_Left_19
*192 PHY_EDGE_ROW_6_Right_6
*193 PHY_EDGE_ROW_7_Left_20
*194 PHY_EDGE_ROW_7_Right_7
*195 PHY_EDGE_ROW_8_Left_21
*196 PHY_EDGE_ROW_8_Right_8
*197 PHY_EDGE_ROW_9_Left_22
*198 PHY_EDGE_ROW_9_Right_9
*199 TAP_TAPCELL_ROW_0_26
*200 TAP_TAPCELL_ROW_0_27
*201 TAP_TAPCELL_ROW_10_37
*202 TAP_TAPCELL_ROW_11_38
*203 TAP_TAPCELL_ROW_12_39
*204 TAP_TAPCELL_ROW_12_40
*205 TAP_TAPCELL_ROW_1_28
*206 TAP_TAPCELL_ROW_2_29
*207 TAP_TAPCELL_ROW_3_30
*208 TAP_TAPCELL_ROW_4_31
*209 TAP_TAPCELL_ROW_5_32
*210 TAP_TAPCELL_ROW_6_33
*211 TAP_TAPCELL_ROW_7_34
*212 TAP_TAPCELL_ROW_8_35
*213 TAP_TAPCELL_ROW_9_36
*214 _056_
*215 _057_
*216 _058_
*217 _059_
*218 _060_
*219 _061_
*220 _062_
*221 _063_
*222 _064_
*223 _065_
*224 _066_
*225 _067_
*226 _068_
*227 _069_
*228 _070_
*229 _071_
*230 _072_
*231 _073_
*232 _074_
*233 _075_
*234 _076_
*235 _077_
*236 _078_
*237 _079_
*238 _080_
*239 _081_
*240 _082_
*241 _083_
*242 _084_
*243 _085_
*244 _086_
*245 _087_
*246 _088_
*247 _089_
*248 _090_
*249 _091_
*250 _092_
*251 _093_
*252 _094_
*253 _095_
*254 _096_
*255 _097_
*256 _098_
*257 _099_
*258 _100_
*259 _101_
*260 _102_
*261 _103_
*262 _104_
*263 _105_
*264 _106_
*265 _107_
*266 _108_
*267 _109_
*268 _110_
*269 _111_
*270 _112_
*271 _113_
*272 _114_
*273 _115_
*274 _116_
*275 _117_
*276 _118_
*277 _119_
*278 _120_
*279 clkbuf_0_clk
*280 clkbuf_1_0__f_clk
*281 clkbuf_1_1__f_clk
*282 clkload0
*283 hold1
*284 hold2
*285 hold3
*286 input1
*287 input2
*288 input3
*289 input4
*290 input5
*291 input6
*292 input7
*293 input8
*294 input9
*295 output10

*PORTS
clk I
out O
psc[0] I
psc[1] I
psc[2] I
psc[3] I
psc[4] I
psc[5] I
psc[6] I
psc[7] I
rst I

*D_NET *3 0.00176526
*CONN
*P clk I
*I *279:A I *D sky130_fd_sc_hd__clkbuf_16
*CAP
1 clk 0.000799881
2 *279:A 0
3 *3:11 0.000799881
4 *3:11 *242:A_N 0
5 *3:11 *249:A 5.86165e-05
6 *3:11 *284:A 2.79122e-05
7 *3:11 *14:10 5.56203e-05
8 *3:11 *72:14 2.33476e-05
9 *3:11 *86:23 0
*RES
1 clk *3:11 28.0895 
2 *3:11 *279:A 23 
*END

*D_NET *4 0.000830312
*CONN
*P out O
*I *295:X O *D sky130_fd_sc_hd__buf_2
*CAP
1 out 0.000119953
2 *295:X 0.000280511
3 *4:10 0.000400464
4 *4:10 *295:A 2.93845e-05
*RES
1 *295:X *4:10 42.2568 
2 *4:10 out 8.4144 
*END

*D_NET *5 0.00131986
*CONN
*P psc[0] I
*I *286:A I *D sky130_fd_sc_hd__clkbuf_1
*CAP
1 psc[0] 0.000591612
2 *286:A 0
3 *5:11 0.000591612
4 *5:11 *6:15 3.42479e-05
5 *5:11 *78:8 0.000102389
*RES
1 psc[0] *5:11 28.1329 
2 *5:11 *286:A 23 
*END

*D_NET *6 0.00228142
*CONN
*P psc[1] I
*I *287:A I *D sky130_fd_sc_hd__clkbuf_1
*CAP
1 psc[1] 0.00094738
2 *287:A 0
3 *6:15 0.00094738
4 *6:15 *220:A_N 0.000322968
5 *6:15 *78:8 2.94466e-05
6 *5:11 *6:15 3.42479e-05
*RES
1 psc[1] *6:15 33.1871 
2 *6:15 *287:A 23 
*END

*D_NET *7 0.00101126
*CONN
*P psc[2] I
*I *288:A I *D sky130_fd_sc_hd__clkbuf_1
*CAP
1 psc[2] 0.000505631
2 *288:A 0.000505631
*RES
1 psc[2] *288:A 49.0821 
*END

*D_NET *8 0.00066408
*CONN
*P psc[3] I
*I *289:A I *D sky130_fd_sc_hd__clkbuf_1
*CAP
1 psc[3] 0.000296299
2 *289:A 0.000296299
3 *289:A *290:A 7.1481e-05
*RES
1 psc[3] *289:A 49.4581 
*END

*D_NET *9 0.000923916
*CONN
*P psc[4] I
*I *290:A I *D sky130_fd_sc_hd__clkbuf_1
*CAP
1 psc[4] 0.000360115
2 *290:A 0.000360115
3 *290:A *291:A 6.21252e-05
4 *290:A *56:8 5.05059e-05
5 *290:A *82:18 1.9574e-05
6 *289:A *290:A 7.1481e-05
*RES
1 psc[4] *290:A 47.9463 
*END

*D_NET *10 0.000610831
*CONN
*P psc[5] I
*I *291:A I *D sky130_fd_sc_hd__clkbuf_1
*CAP
1 psc[5] 0.000252724
2 *291:A 0.000252724
3 *291:A *52:8 4.32584e-05
4 *290:A *291:A 6.21252e-05
*RES
1 psc[5] *291:A 48.4016 
*END

*D_NET *11 0.000554833
*CONN
*P psc[6] I
*I *292:A I *D sky130_fd_sc_hd__clkbuf_1
*CAP
1 psc[6] 0.000215736
2 *292:A 0.000215736
3 *292:A *229:A_N 4.7869e-05
4 *292:A *232:B 1.27424e-05
5 *292:A *293:A 6.275e-05
*RES
1 psc[6] *292:A 48.0495 
*END

*D_NET *12 0.000412418
*CONN
*P psc[7] I
*I *293:A I *D sky130_fd_sc_hd__clkbuf_1
*CAP
1 psc[7] 0.000174834
2 *293:A 0.000174834
3 *292:A *293:A 6.275e-05
*RES
1 psc[7] *293:A 46.9931 
*END

*D_NET *13 0.000624864
*CONN
*P rst I
*I *284:A I *D sky130_fd_sc_hd__dlygate4sd3_1
*CAP
1 rst 0.000298476
2 *284:A 0.000298476
3 *3:11 *284:A 2.79122e-05
*RES
1 rst *284:A 49.8062 
*END

*D_NET *14 0.000350845
*CONN
*I *270:D I *D sky130_fd_sc_hd__dfrtp_1
*I *242:X O *D sky130_fd_sc_hd__and2b_1
*CAP
1 *270:D 0
2 *242:X 0.000101858
3 *14:10 0.000101858
4 *14:10 *242:A_N 4.08537e-05
5 *14:10 *85:41 3.22879e-05
6 *14:10 *86:23 1.83667e-05
7 *3:11 *14:10 5.56203e-05
*RES
1 *242:X *14:10 40.175 
2 *14:10 *270:D 38 
*END

*D_NET *15 0.000341869
*CONN
*I *271:D I *D sky130_fd_sc_hd__dfrtp_1
*I *245:X O *D sky130_fd_sc_hd__and3_1
*CAP
1 *271:D 0.000159929
2 *245:X 0.000159929
3 *271:D *245:A 0
4 *271:D *245:B 2.20111e-05
*RES
1 *245:X *271:D 48.5479 
*END

*D_NET *16 0.00158644
*CONN
*I *272:D I *D sky130_fd_sc_hd__dfrtp_1
*I *248:X O *D sky130_fd_sc_hd__and3b_1
*CAP
1 *272:D 4.11597e-05
2 *248:X 0.00027996
3 *16:16 0.00032112
4 *272:D *39:16 2.64616e-05
5 *16:16 *37:10 0.000185755
6 *16:16 *57:108 8.91727e-05
7 *16:16 *59:37 7.4469e-06
8 *16:16 *60:12 9.64943e-05
9 *16:16 *61:10 0.000160191
10 *16:16 *70:25 0.000216929
11 *16:16 *73:12 0.000161748
12 *16:16 *86:29 0
*RES
1 *248:X *16:16 46.1407 
2 *16:16 *272:D 38.6214 
*END

*D_NET *17 0.000439991
*CONN
*I *273:D I *D sky130_fd_sc_hd__dfrtp_1
*I *251:X O *D sky130_fd_sc_hd__and3b_1
*CAP
1 *273:D 9.42428e-05
2 *251:X 9.42428e-05
3 *273:D *251:B 0.000145112
4 *273:D *273:CLK 5.79559e-05
5 *273:D *57:20 1.21972e-05
6 *273:D *62:19 3.62408e-05
*RES
1 *251:X *273:D 48.6929 
*END

*D_NET *18 0.000400424
*CONN
*I *274:D I *D sky130_fd_sc_hd__dfrtp_1
*I *254:X O *D sky130_fd_sc_hd__and3b_1
*CAP
1 *274:D 0.000185863
2 *254:X 0.000185863
3 *274:D *275:CLK 1.83408e-05
4 *274:D *71:51 1.03578e-05
*RES
1 *254:X *274:D 48.5479 
*END

*D_NET *19 0.000563483
*CONN
*I *275:D I *D sky130_fd_sc_hd__dfrtp_1
*I *257:X O *D sky130_fd_sc_hd__and3b_1
*CAP
1 *275:D 7.58868e-05
2 *257:X 0.000118217
3 *19:8 0.000194104
4 *275:D *275:CLK 7.88828e-05
5 *19:8 *57:38 9.63918e-05
*RES
1 *257:X *19:8 40.61 
2 *19:8 *275:D 39.5743 
*END

*D_NET *20 0.00129365
*CONN
*I *276:D I *D sky130_fd_sc_hd__dfrtp_1
*I *260:X O *D sky130_fd_sc_hd__and3_1
*CAP
1 *276:D 0
2 *260:X 0.000500979
3 *20:10 0.000500979
4 *20:10 *278:CLK 3.34129e-05
5 *20:10 *70:14 0.000218249
6 *20:10 *71:10 1.40958e-05
7 *20:10 *71:23 2.59343e-05
*RES
1 *260:X *20:10 45.4157 
2 *20:10 *276:D 38 
*END

*D_NET *21 0.00101792
*CONN
*I *277:D I *D sky130_fd_sc_hd__dfrtp_1
*I *261:Y O *D sky130_fd_sc_hd__a21boi_1
*CAP
1 *277:D 0.00034186
2 *261:Y 8.29962e-05
3 *21:8 0.000424856
4 *277:D *277:CLK 6.17437e-06
5 *277:D *277:RESET_B 3.08719e-06
6 *277:D *32:10 5.12254e-05
7 *21:8 *32:10 4.08537e-05
8 *21:8 *57:136 6.6869e-05
*RES
1 *261:Y *21:8 39.9057 
2 *21:8 *277:D 44.3386 
*END

*D_NET *22 0.00054953
*CONN
*I *270:RESET_B I *D sky130_fd_sc_hd__dfrtp_1
*I *218:Y O *D sky130_fd_sc_hd__inv_2
*CAP
1 *270:RESET_B 0
2 *218:Y 0.000189708
3 *22:8 0.000189708
4 *22:8 *262:A 5.08795e-05
5 *22:8 *57:38 8.85189e-05
6 *22:8 *76:10 0
7 *22:8 *85:37 3.07161e-05
*RES
1 *218:Y *22:8 42.3707 
2 *22:8 *270:RESET_B 15 
*END

*D_NET *23 0.000196704
*CONN
*I *271:RESET_B I *D sky130_fd_sc_hd__dfrtp_1
*I *262:Y O *D sky130_fd_sc_hd__inv_2
*CAP
1 *271:RESET_B 0
2 *262:Y 9.8352e-05
3 *23:8 9.8352e-05
4 *23:8 *58:8 0
5 *23:8 *87:10 0
*RES
1 *262:Y *23:8 39.5536 
2 *23:8 *271:RESET_B 15 
*END

*D_NET *24 0.000291582
*CONN
*I *272:RESET_B I *D sky130_fd_sc_hd__dfrtp_1
*I *263:Y O *D sky130_fd_sc_hd__inv_2
*CAP
1 *272:RESET_B 0
2 *263:Y 0.000143683
3 *24:8 0.000143683
4 *24:8 *35:14 4.21594e-06
5 *24:8 *39:16 0
6 *24:8 *79:10 0
*RES
1 *263:Y *24:8 40.61 
2 *24:8 *272:RESET_B 15 
*END

*D_NET *25 0.00031891
*CONN
*I *273:RESET_B I *D sky130_fd_sc_hd__dfrtp_1
*I *264:Y O *D sky130_fd_sc_hd__inv_2
*CAP
1 *273:RESET_B 0
2 *264:Y 0.000107536
3 *25:10 0.000107536
4 *25:10 *263:A 5.56203e-05
5 *25:10 *60:31 3.0556e-05
6 *25:10 *85:41 6.17437e-06
7 *25:10 *89:12 1.14876e-05
*RES
1 *264:Y *25:10 40.175 
2 *25:10 *273:RESET_B 15 
*END

*D_NET *26 0.000538704
*CONN
*I *274:RESET_B I *D sky130_fd_sc_hd__dfrtp_1
*I *265:Y O *D sky130_fd_sc_hd__inv_2
*CAP
1 *274:RESET_B 0
2 *265:Y 0.000159766
3 *26:10 0.000159766
4 *26:10 *57:136 0
5 *26:10 *85:49 0.000213799
6 *26:10 *85:62 5.37348e-06
*RES
1 *265:Y *26:10 41.2314 
2 *26:10 *274:RESET_B 15 
*END

*D_NET *27 0.000531959
*CONN
*I *275:RESET_B I *D sky130_fd_sc_hd__dfrtp_1
*I *266:Y O *D sky130_fd_sc_hd__inv_2
*CAP
1 *275:RESET_B 0
2 *266:Y 0.000262892
3 *27:10 0.000262892
4 *27:10 *85:24 6.17437e-06
5 *27:10 *85:30 0
*RES
1 *266:Y *27:10 41.6043 
2 *27:10 *275:RESET_B 15 
*END

*D_NET *28 0.000450485
*CONN
*I *276:RESET_B I *D sky130_fd_sc_hd__dfrtp_1
*I *267:Y O *D sky130_fd_sc_hd__inv_2
*CAP
1 *276:RESET_B 9.28122e-05
2 *267:Y 9.28122e-05
3 *276:RESET_B *92:8 0.000137039
4 *276:RESET_B *92:34 0.000127821
*RES
1 *267:Y *276:RESET_B 25.9311 
*END

*D_NET *29 0.000769372
*CONN
*I *277:RESET_B I *D sky130_fd_sc_hd__dfrtp_1
*I *268:Y O *D sky130_fd_sc_hd__inv_2
*CAP
1 *277:RESET_B 0.000133082
2 *268:Y 0.000109254
3 *29:8 0.000242336
4 *277:RESET_B *32:10 2.69859e-05
5 *277:RESET_B *93:6 2.64616e-05
6 *29:8 *55:8 0
7 *29:8 *77:8 3.70094e-05
8 *29:8 *85:62 0.000191157
9 *277:D *277:RESET_B 3.08719e-06
*RES
1 *268:Y *29:8 40.61 
2 *29:8 *277:RESET_B 16.9782 
*END

*D_NET *30 0.000201409
*CONN
*I *278:RESET_B I *D sky130_fd_sc_hd__dfrtp_1
*I *269:Y O *D sky130_fd_sc_hd__inv_2
*CAP
1 *278:RESET_B 0
2 *269:Y 7.16564e-05
3 *30:8 7.16564e-05
4 *30:8 *295:A 0
5 *30:8 *85:30 5.80963e-05
*RES
1 *269:Y *30:8 39.5536 
2 *30:8 *278:RESET_B 15 
*END

*D_NET *31 0.000229847
*CONN
*I *278:D I *D sky130_fd_sc_hd__dfrtp_1
*I *241:Y O *D sky130_fd_sc_hd__xnor2_1
*CAP
1 *278:D 0
2 *241:Y 7.84972e-05
3 *31:8 7.84972e-05
4 *31:8 *260:A 7.28526e-05
5 *31:8 *85:30 0
*RES
1 *241:Y *31:8 39.9057 
2 *31:8 *278:D 38 
*END

*D_NET *32 0.00111025
*CONN
*I *261:A1 I *D sky130_fd_sc_hd__a21boi_1
*I *214:Y O *D sky130_fd_sc_hd__inv_2
*CAP
1 *261:A1 0
2 *214:Y 0.000458379
3 *32:10 0.000458379
4 *32:10 *57:136 0
5 *32:10 *85:62 0
6 *32:10 *93:6 7.44257e-05
7 *277:D *32:10 5.12254e-05
8 *277:RESET_B *32:10 2.69859e-05
9 *21:8 *32:10 4.08537e-05
*RES
1 *214:Y *32:10 44.2143 
2 *32:10 *261:A1 38 
*END

*D_NET *33 0.00283503
*CONN
*I *236:B I *D sky130_fd_sc_hd__nand2_1
*I *234:B2 I *D sky130_fd_sc_hd__o2bb2a_1
*I *235:A2_N I *D sky130_fd_sc_hd__a2bb2o_1
*I *215:Y O *D sky130_fd_sc_hd__inv_2
*CAP
1 *236:B 4.04478e-05
2 *234:B2 4.54402e-05
3 *235:A2_N 0
4 *215:Y 0.000128302
5 *33:46 0.000273244
6 *33:20 6.89219e-05
7 *33:14 0.000401354
8 *33:8 0.000648089
9 *234:B2 *82:18 2.64616e-05
10 *236:B *53:10 1.59094e-05
11 *33:8 *90:54 0.000140204
12 *33:14 *235:B2 0
13 *33:14 *55:8 5.91279e-05
14 *33:14 *82:18 0.000128785
15 *33:14 *90:54 3.17634e-05
16 *33:20 *235:B2 6.79006e-05
17 *33:20 *285:A 0
18 *33:20 *50:8 1.47563e-05
19 *33:20 *55:8 0
20 *33:20 *82:29 0.000141869
21 *33:46 *239:A3 4.37033e-05
22 *33:46 *51:8 8.85189e-05
23 *33:46 *53:10 0.000163352
24 *33:46 *54:8 0
25 *33:46 *55:8 5.09988e-05
26 *33:46 *82:18 0.000255877
*RES
1 *215:Y *33:8 40.5271 
2 *33:8 *33:14 19.5571 
3 *33:14 *33:20 32.2579 
4 *33:20 *235:A2_N 23 
5 *33:14 *234:B2 23.6214 
6 *33:8 *33:46 36.4836 
7 *33:46 *236:B 38.6214 
*END

*D_NET *34 0.0017668
*CONN
*I *237:A2 I *D sky130_fd_sc_hd__o2111a_1
*I *234:A2_N I *D sky130_fd_sc_hd__o2bb2a_1
*I *235:B2 I *D sky130_fd_sc_hd__a2bb2o_1
*I *216:Y O *D sky130_fd_sc_hd__inv_2
*CAP
1 *237:A2 0
2 *234:A2_N 4.65959e-05
3 *235:B2 0.000192062
4 *216:Y 0.000246538
5 *34:12 0.000349656
6 *34:10 0.000357536
7 *234:A2_N *90:54 6.72664e-06
8 *234:A2_N *90:67 2.93747e-05
9 *235:B2 *55:8 0
10 *235:B2 *82:18 4.43717e-05
11 *235:B2 *82:29 1.69668e-05
12 *235:B2 *90:67 6.25829e-05
13 *34:10 *216:A 2.30292e-05
14 *34:10 *56:8 4.08537e-05
15 *34:10 *82:18 3.72639e-05
16 *34:12 *56:8 6.07611e-06
17 *34:12 *82:18 0.000100543
18 *34:12 *90:67 0.000138727
19 *33:14 *235:B2 0
20 *33:20 *235:B2 6.79006e-05
*RES
1 *216:Y *34:10 41.7286 
2 *34:10 *34:12 2.96214 
3 *34:12 *235:B2 42.2879 
4 *34:12 *234:A2_N 38.6214 
5 *34:10 *237:A2 38 
*END

*D_NET *35 0.00218504
*CONN
*I *226:A2 I *D sky130_fd_sc_hd__a21oi_1
*I *247:A I *D sky130_fd_sc_hd__nand2_1
*I *217:Y O *D sky130_fd_sc_hd__inv_2
*CAP
1 *226:A2 0
2 *247:A 0
3 *217:Y 0
4 *35:29 0.000454672
5 *35:14 0.000230868
6 *35:4 0.000685541
7 *35:14 *246:A 0.000159692
8 *35:14 *263:A 5.50106e-05
9 *35:14 *39:16 6.25829e-05
10 *35:14 *88:12 5.67058e-05
11 *35:29 *226:A1 0.00014196
12 *35:29 *226:B1 0
13 *35:29 *228:A1 0.000114921
14 *35:29 *40:10 0.000143468
15 *35:29 *44:10 5.70419e-05
16 *35:29 *79:10 6.07611e-06
17 *35:29 *88:12 1.22822e-05
18 *24:8 *35:14 4.21594e-06
*RES
1 *217:Y *35:4 23 
2 *35:4 *35:14 35.7793 
3 *35:14 *247:A 23 
4 *35:4 *35:29 38.265 
5 *35:29 *226:A2 23 
*END

*D_NET *36 0.000912581
*CONN
*I *222:B1 I *D sky130_fd_sc_hd__a21o_1
*I *219:X O *D sky130_fd_sc_hd__and2b_1
*CAP
1 *222:B1 0
2 *219:X 0.000350633
3 *36:10 0.000350633
4 *36:10 *220:A_N 2.31797e-05
5 *36:10 *39:8 5.21024e-05
6 *36:10 *73:20 3.27399e-05
7 *36:10 *87:22 2.04774e-05
8 *36:10 *87:37 8.28146e-05
*RES
1 *219:X *36:10 44.6493 
2 *36:10 *222:B1 38 
*END

*D_NET *37 0.00204519
*CONN
*I *222:A1 I *D sky130_fd_sc_hd__a21o_1
*I *220:Y O *D sky130_fd_sc_hd__nand2b_1
*CAP
1 *222:A1 0.0001704
2 *220:Y 0.000292756
3 *37:10 0.000463157
4 *222:A1 *222:A2 5.51699e-05
5 *222:A1 *245:A 1.24376e-05
6 *222:A1 *246:B 2.31591e-05
7 *222:A1 *73:20 0.000227473
8 *222:A1 *86:57 4.25643e-05
9 *37:10 *219:A_N 0.000146195
10 *37:10 *70:25 0.000241346
11 *37:10 *73:12 0.000143009
12 *37:10 *78:8 4.17736e-05
13 *16:16 *37:10 0.000185755
*RES
1 *220:Y *37:10 44.7736 
2 *37:10 *222:A1 42.4743 
*END

*D_NET *38 0.000465947
*CONN
*I *222:A2 I *D sky130_fd_sc_hd__a21o_1
*I *221:Y O *D sky130_fd_sc_hd__nand2b_1
*CAP
1 *222:A2 6.4727e-05
2 *221:Y 3.99327e-05
3 *38:8 0.00010466
4 *222:A2 *86:57 2.71459e-05
5 *38:8 *60:8 8.71559e-05
6 *38:8 *86:57 8.71559e-05
7 *222:A1 *222:A2 5.51699e-05
*RES
1 *221:Y *38:8 39.2014 
2 *38:8 *222:A2 39.3568 
*END

*D_NET *39 0.0032274
*CONN
*I *228:A1 I *D sky130_fd_sc_hd__a41o_1
*I *222:X O *D sky130_fd_sc_hd__a21o_1
*CAP
1 *228:A1 0.000129196
2 *222:X 5.98658e-05
3 *39:16 0.00111853
4 *39:8 0.0010492
5 *228:A1 *246:A 0
6 *228:A1 *44:10 5.67058e-05
7 *228:A1 *45:10 7.88828e-05
8 *228:A1 *88:12 5.50049e-05
9 *39:8 *87:22 3.70094e-05
10 *39:8 *87:37 8.62876e-05
11 *39:16 *272:CLK 0.000145231
12 *39:16 *70:25 1.89371e-05
13 *39:16 *88:12 0.000136486
14 *272:D *39:16 2.64616e-05
15 *24:8 *39:16 0
16 *35:14 *39:16 6.25829e-05
17 *35:29 *228:A1 0.000114921
18 *36:10 *39:8 5.21024e-05
*RES
1 *222:X *39:8 39.5536 
2 *39:8 *39:16 43.485 
3 *39:16 *228:A1 42.1221 
*END

*D_NET *40 0.000959073
*CONN
*I *227:A1 I *D sky130_fd_sc_hd__a21oi_1
*I *228:A2 I *D sky130_fd_sc_hd__a41o_1
*I *223:Y O *D sky130_fd_sc_hd__nand2b_1
*CAP
1 *227:A1 0.000136283
2 *228:A2 3.04333e-05
3 *223:Y 0.000193165
4 *40:10 0.000359882
5 *227:A1 *227:A2 5.50106e-05
6 *227:A1 *228:A4 2.4754e-05
7 *228:A2 *41:10 1.14452e-05
8 *228:A2 *42:10 0
9 *228:A2 *45:10 4.6318e-06
10 *40:10 *226:B1 0
11 *40:10 *42:10 0
12 *40:10 *43:8 0
13 *40:10 *88:12 0
14 *35:29 *40:10 0.000143468
*RES
1 *223:Y *40:10 41.4075 
2 *40:10 *228:A2 38.6732 
3 *40:10 *227:A1 40.5168 
*END

*D_NET *41 0.000686437
*CONN
*I *227:A2 I *D sky130_fd_sc_hd__a21oi_1
*I *228:A3 I *D sky130_fd_sc_hd__a41o_1
*I *224:Y O *D sky130_fd_sc_hd__nand2b_1
*CAP
1 *227:A2 8.17936e-05
2 *228:A3 0
3 *224:Y 0.00014386
4 *41:12 8.17936e-05
5 *41:10 0.00014386
6 *227:A2 *228:A4 5.67058e-05
7 *227:A2 *44:10 2.4754e-05
8 *41:10 *224:B 7.53384e-06
9 *41:10 *42:10 0
10 *41:10 *45:10 2.26385e-05
11 *41:10 *89:49 5.70419e-05
12 *227:A1 *227:A2 5.50106e-05
13 *228:A2 *41:10 1.14452e-05
*RES
1 *224:Y *41:10 40.2993 
2 *41:10 *41:12 15 
3 *41:12 *228:A3 23 
4 *41:12 *227:A2 24.9471 
*END

*D_NET *42 0.000965524
*CONN
*I *226:B1 I *D sky130_fd_sc_hd__a21oi_1
*I *227:B1 I *D sky130_fd_sc_hd__a21oi_1
*I *225:X O *D sky130_fd_sc_hd__and2b_1
*CAP
1 *226:B1 0.000201291
2 *227:B1 0
3 *225:X 0.000183586
4 *42:10 0.000384877
5 *226:B1 *43:8 0.000138727
6 *42:10 *224:A_N 5.70419e-05
7 *228:A2 *42:10 0
8 *35:29 *226:B1 0
9 *40:10 *226:B1 0
10 *40:10 *42:10 0
11 *41:10 *42:10 0
*RES
1 *225:X *42:10 41.0036 
2 *42:10 *227:B1 38 
3 *42:10 *226:B1 41.9357 
*END

*D_NET *43 0.000596034
*CONN
*I *228:A4 I *D sky130_fd_sc_hd__a41o_1
*I *226:Y O *D sky130_fd_sc_hd__a21oi_1
*CAP
1 *228:A4 3.19835e-05
2 *226:Y 8.4963e-05
3 *43:8 0.000116946
4 *228:A4 *44:10 0.000141954
5 *226:B1 *43:8 0.000138727
6 *227:A1 *228:A4 2.4754e-05
7 *227:A2 *228:A4 5.67058e-05
8 *40:10 *43:8 0
*RES
1 *226:Y *43:8 39.9057 
2 *43:8 *228:A4 39.5743 
*END

*D_NET *44 0.000753905
*CONN
*I *228:B1 I *D sky130_fd_sc_hd__a41o_1
*I *227:Y O *D sky130_fd_sc_hd__a21oi_1
*CAP
1 *228:B1 0
2 *227:Y 0.000236725
3 *44:10 0.000236725
4 *227:A2 *44:10 2.4754e-05
5 *228:A1 *44:10 5.67058e-05
6 *228:A4 *44:10 0.000141954
7 *35:29 *44:10 5.70419e-05
*RES
1 *227:Y *44:10 28.075 
2 *44:10 *228:B1 23 
*END

*D_NET *45 0.000895576
*CONN
*I *240:A1 I *D sky130_fd_sc_hd__a21oi_4
*I *228:X O *D sky130_fd_sc_hd__a41o_1
*CAP
1 *240:A1 0
2 *228:X 0.000388989
3 *45:10 0.000388989
4 *45:10 *54:8 1.14452e-05
5 *45:10 *56:8 0
6 *45:10 *89:49 0
7 *228:A1 *45:10 7.88828e-05
8 *228:A2 *45:10 4.6318e-06
9 *41:10 *45:10 2.26385e-05
*RES
1 *228:X *45:10 44.6493 
2 *45:10 *240:A1 38 
*END

*D_NET *46 0.000784805
*CONN
*I *233:A I *D sky130_fd_sc_hd__and4_1
*I *238:A1 I *D sky130_fd_sc_hd__a21boi_1
*I *229:Y O *D sky130_fd_sc_hd__nand2b_1
*CAP
1 *233:A 0
2 *238:A1 7.57626e-05
3 *229:Y 0.000165022
4 *46:12 7.57626e-05
5 *46:10 0.000165022
6 *238:A1 *238:A2 5.3304e-05
7 *238:A1 *238:B1_N 2.02872e-05
8 *46:10 *229:B 7.46977e-05
9 *46:10 *231:B 0.000114083
10 *46:10 *48:8 4.08641e-05
*RES
1 *229:Y *46:10 41.1279 
2 *46:10 *46:12 15 
3 *46:12 *238:A1 24.0979 
4 *46:12 *233:A 23 
*END

*D_NET *47 0.000791654
*CONN
*I *233:B I *D sky130_fd_sc_hd__and4_1
*I *238:A2 I *D sky130_fd_sc_hd__a21boi_1
*I *230:Y O *D sky130_fd_sc_hd__nand2b_1
*CAP
1 *233:B 0
2 *238:A2 5.97849e-05
3 *230:Y 0.000210241
4 *47:12 5.97849e-05
5 *47:10 0.000210241
6 *238:A2 *238:B1_N 0.000140259
7 *238:A2 *48:14 6.17437e-06
8 *47:10 *230:A_N 3.5664e-05
9 *47:10 *231:B 1.62015e-05
10 *47:10 *50:8 0
11 *238:A1 *238:A2 5.3304e-05
*RES
1 *230:Y *47:10 40.8793 
2 *47:10 *47:12 15 
3 *47:12 *238:A2 24.5743 
4 *47:12 *233:B 23 
*END

*D_NET *48 0.00115624
*CONN
*I *238:B1_N I *D sky130_fd_sc_hd__a21boi_1
*I *233:C I *D sky130_fd_sc_hd__and4_1
*I *231:Y O *D sky130_fd_sc_hd__nand2b_1
*CAP
1 *238:B1_N 0.000204226
2 *233:C 0
3 *231:Y 6.31175e-05
4 *48:14 0.000288622
5 *48:8 0.000147513
6 *238:B1_N *84:8 0.000182832
7 *48:8 *231:B 1.02387e-05
8 *48:8 *49:8 5.21024e-05
9 *238:A1 *238:B1_N 2.02872e-05
10 *238:A2 *238:B1_N 0.000140259
11 *238:A2 *48:14 6.17437e-06
12 *46:10 *48:8 4.08641e-05
*RES
1 *231:Y *48:8 39.5536 
2 *48:8 *48:14 16.4707 
3 *48:14 *233:C 23 
4 *48:14 *238:B1_N 27.93 
*END

*D_NET *49 0.000531342
*CONN
*I *233:D I *D sky130_fd_sc_hd__and4_1
*I *232:Y O *D sky130_fd_sc_hd__nand2b_1
*CAP
1 *233:D 0
2 *232:Y 0.00023962
3 *49:8 0.00023962
4 *49:8 *229:A_N 0
5 *49:8 *231:B 0
6 *49:8 *232:B 0
7 *49:8 *92:44 0
8 *48:8 *49:8 5.21024e-05
*RES
1 *232:Y *49:8 42.3707 
2 *49:8 *233:D 38 
*END

*D_NET *50 0.00212395
*CONN
*I *239:A1 I *D sky130_fd_sc_hd__a31o_1
*I *237:B1 I *D sky130_fd_sc_hd__o2111a_1
*I *233:X O *D sky130_fd_sc_hd__and4_1
*CAP
1 *239:A1 9.01878e-05
2 *237:B1 0.00017512
3 *233:X 0.000414084
4 *50:10 0.000265308
5 *50:8 0.000414084
6 *237:B1 *239:A3 0.000141318
7 *239:A1 *239:A3 6.17437e-06
8 *239:A1 *239:B1 2.79662e-05
9 *50:8 *230:A_N 0
10 *50:8 *285:A 0
11 *50:8 *52:8 0.000326983
12 *50:8 *82:29 0.000194309
13 *50:8 *90:67 5.3656e-05
14 *33:20 *50:8 1.47563e-05
15 *47:10 *50:8 0
*RES
1 *233:X *50:8 48.005 
2 *50:8 *50:10 15 
3 *50:10 *237:B1 26.0036 
4 *50:10 *239:A1 24.595 
*END

*D_NET *51 0.000241427
*CONN
*I *237:C1 I *D sky130_fd_sc_hd__o2111a_1
*I *234:X O *D sky130_fd_sc_hd__o2bb2a_1
*CAP
1 *237:C1 0
2 *234:X 3.21944e-05
3 *51:8 3.21944e-05
4 *51:8 *82:18 8.85189e-05
5 *33:46 *51:8 8.85189e-05
*RES
1 *234:X *51:8 39.2014 
2 *51:8 *237:C1 38 
*END

*D_NET *52 0.000756311
*CONN
*I *239:A2 I *D sky130_fd_sc_hd__a31o_1
*I *235:X O *D sky130_fd_sc_hd__a2bb2o_1
*CAP
1 *239:A2 0
2 *235:X 0.000193035
3 *52:8 0.000193035
4 *52:8 *90:67 0
5 *291:A *52:8 4.32584e-05
6 *50:8 *52:8 0.000326983
*RES
1 *235:X *52:8 42.7229 
2 *52:8 *239:A2 38 
*END

*D_NET *53 0.00138645
*CONN
*I *239:A3 I *D sky130_fd_sc_hd__a31o_1
*I *237:D1 I *D sky130_fd_sc_hd__o2111a_1
*I *236:Y O *D sky130_fd_sc_hd__nand2_1
*CAP
1 *239:A3 0.000139938
2 *237:D1 0
3 *236:Y 0.000161796
4 *53:12 0.000139938
5 *53:10 0.000161796
6 *239:A3 *239:B1 0.000351513
7 *53:10 *54:8 2.79004e-05
8 *53:10 *55:8 3.31127e-05
9 *53:10 *57:136 0
10 *236:B *53:10 1.59094e-05
11 *237:B1 *239:A3 0.000141318
12 *239:A1 *239:A3 6.17437e-06
13 *33:46 *239:A3 4.37033e-05
14 *33:46 *53:10 0.000163352
*RES
1 *236:Y *53:10 40.8793 
2 *53:10 *53:12 15 
3 *53:12 *237:D1 23 
4 *53:12 *239:A3 27.4536 
*END

*D_NET *54 0.000542295
*CONN
*I *240:A2 I *D sky130_fd_sc_hd__a21oi_4
*I *237:X O *D sky130_fd_sc_hd__o2111a_1
*CAP
1 *240:A2 0
2 *237:X 0.000251475
3 *54:8 0.000251475
4 *54:8 *56:8 0
5 *54:8 *57:136 0
6 *54:8 *89:12 0
7 *54:8 *89:49 0
8 *33:46 *54:8 0
9 *45:10 *54:8 1.14452e-05
10 *53:10 *54:8 2.79004e-05
*RES
1 *237:X *54:8 42.7229 
2 *54:8 *240:A2 38 
*END

*D_NET *55 0.00247607
*CONN
*I *239:B1 I *D sky130_fd_sc_hd__a31o_1
*I *238:Y O *D sky130_fd_sc_hd__a21boi_1
*CAP
1 *239:B1 0.000376766
2 *238:Y 0.000511457
3 *55:8 0.000888223
4 *55:8 *231:A_N 7.03766e-05
5 *55:8 *285:A 0.000106527
6 *55:8 *57:136 0
7 *55:8 *77:8 0
8 *55:8 *82:18 0
9 *55:8 *85:62 0
10 *235:B2 *55:8 0
11 *239:A1 *239:B1 2.79662e-05
12 *239:A3 *239:B1 0.000351513
13 *29:8 *55:8 0
14 *33:14 *55:8 5.91279e-05
15 *33:20 *55:8 0
16 *33:46 *55:8 5.09988e-05
17 *53:10 *55:8 3.31127e-05
*RES
1 *238:Y *55:8 49.0614 
2 *55:8 *239:B1 44.8357 
*END

*D_NET *56 0.000578335
*CONN
*I *240:B1 I *D sky130_fd_sc_hd__a21oi_4
*I *239:X O *D sky130_fd_sc_hd__a31o_1
*CAP
1 *240:B1 0
2 *239:X 0.00024045
3 *56:8 0.00024045
4 *56:8 *82:18 0
5 *290:A *56:8 5.05059e-05
6 *34:10 *56:8 4.08537e-05
7 *34:12 *56:8 6.07611e-06
8 *45:10 *56:8 0
9 *54:8 *56:8 0
*RES
1 *239:X *56:8 42.7229 
2 *56:8 *240:B1 38 
*END

*D_NET *57 0.0135309
*CONN
*I *261:B1_N I *D sky130_fd_sc_hd__a21boi_1
*I *248:C I *D sky130_fd_sc_hd__and3b_1
*I *245:A I *D sky130_fd_sc_hd__and3_1
*I *251:C I *D sky130_fd_sc_hd__and3b_1
*I *254:C I *D sky130_fd_sc_hd__and3b_1
*I *242:B I *D sky130_fd_sc_hd__and2b_1
*I *241:B I *D sky130_fd_sc_hd__xnor2_1
*I *260:A I *D sky130_fd_sc_hd__and3_1
*I *257:C I *D sky130_fd_sc_hd__and3b_1
*I *240:Y O *D sky130_fd_sc_hd__a21oi_4
*CAP
1 *261:B1_N 0
2 *248:C 9.68049e-05
3 *245:A 0.000258332
4 *251:C 0
5 *254:C 0
6 *242:B 2.34823e-05
7 *241:B 0
8 *260:A 0.000198062
9 *257:C 0
10 *240:Y 0.000514027
11 *57:136 0.000795122
12 *57:108 0.000687208
13 *57:96 0.00063814
14 *57:84 0.000220824
15 *57:49 0.00057181
16 *57:38 0.000897711
17 *57:30 0.00095973
18 *57:28 0.000904414
19 *57:20 0.000582893
20 *57:14 0.000835649
21 *57:10 0.00172075
22 *245:A *246:B 1.71484e-05
23 *248:C *59:37 9.41704e-05
24 *248:C *60:12 9.41704e-05
25 *248:C *61:10 7.58696e-05
26 *260:A *259:B 0
27 *260:A *278:CLK 3.22879e-05
28 *260:A *85:30 0
29 *57:20 *60:31 0
30 *57:20 *62:19 0.000227473
31 *57:20 *63:10 8.89816e-05
32 *57:28 *249:B 0.000110184
33 *57:28 *250:B 0.000110184
34 *57:28 *70:25 0
35 *57:28 *89:16 0.000135037
36 *57:30 *85:41 0.000121692
37 *57:30 *89:16 0.000314157
38 *57:38 *242:A_N 1.14762e-05
39 *57:38 *76:10 0
40 *57:38 *85:30 0.000230976
41 *57:38 *85:37 7.45175e-05
42 *57:38 *85:41 5.47927e-05
43 *57:49 *257:A_N 9.00922e-05
44 *57:49 *259:B 0
45 *57:49 *66:12 0
46 *57:49 *67:6 4.45644e-05
47 *57:49 *85:30 0
48 *57:84 *250:A 0
49 *57:84 *250:B 0.000167443
50 *57:84 *254:A_N 3.22465e-05
51 *57:84 *64:16 5.62433e-05
52 *57:84 *66:10 4.08537e-05
53 *57:96 *61:10 3.43144e-05
54 *57:96 *63:10 5.15635e-05
55 *57:96 *70:25 1.7387e-05
56 *57:108 *248:B 5.50049e-05
57 *57:108 *59:37 1.66293e-05
58 *57:108 *60:12 4.21281e-05
59 *57:108 *73:20 0.0001366
60 *57:108 *86:57 6.35534e-05
61 *57:108 *87:22 0
62 *57:136 *263:A 0
63 *57:136 *85:49 0
64 *57:136 *85:62 0.000404047
65 *57:136 *89:12 9.98995e-05
66 *57:136 *89:49 4.17929e-05
67 *57:136 *90:12 0
68 *222:A1 *245:A 1.24376e-05
69 *271:D *245:A 0
70 *273:D *57:20 1.21972e-05
71 *16:16 *57:108 8.91727e-05
72 *19:8 *57:38 9.63918e-05
73 *21:8 *57:136 6.6869e-05
74 *22:8 *57:38 8.85189e-05
75 *26:10 *57:136 0
76 *31:8 *260:A 7.28526e-05
77 *32:10 *57:136 0
78 *53:10 *57:136 0
79 *54:8 *57:136 0
80 *55:8 *57:136 0
*RES
1 *240:Y *57:10 31.1614 
2 *57:10 *57:14 21.3386 
3 *57:14 *57:20 19.6814 
4 *57:20 *57:28 34.5364 
5 *57:28 *57:30 6.815 
6 *57:30 *57:38 40.7714 
7 *57:38 *257:C 23 
8 *57:38 *57:49 22.0429 
9 *57:49 *260:A 42.5571 
10 *57:49 *241:B 38 
11 *57:30 *242:B 23.4971 
12 *57:28 *57:84 34.64 
13 *57:84 *254:C 23 
14 *57:20 *251:C 23 
15 *57:14 *57:96 2.25786 
16 *57:96 *57:108 37.5607 
17 *57:108 *245:A 41.5007 
18 *57:96 *248:C 40.2993 
19 *57:10 *57:136 47.0479 
20 *57:136 *261:B1_N 23 
*END

*D_NET *58 0.000823065
*CONN
*I *245:B I *D sky130_fd_sc_hd__and3_1
*I *243:X O *D sky130_fd_sc_hd__or2_1
*CAP
1 *245:B 0.000168366
2 *243:X 0.000107701
3 *58:8 0.000276067
4 *245:B *59:14 1.40088e-06
5 *58:8 *72:10 8.11552e-05
6 *58:8 *72:14 0.000140958
7 *58:8 *87:10 2.54046e-05
8 *271:D *245:B 2.20111e-05
9 *23:8 *58:8 0
*RES
1 *243:X *58:8 40.9621 
2 *58:8 *245:B 40.0507 
*END

*D_NET *59 0.00264339
*CONN
*I *247:B I *D sky130_fd_sc_hd__nand2_1
*I *245:C I *D sky130_fd_sc_hd__and3_1
*I *244:Y O *D sky130_fd_sc_hd__nand2_1
*CAP
1 *247:B 0
2 *245:C 0
3 *244:Y 0
4 *59:37 0.000742068
5 *59:14 0.000216526
6 *59:4 0.000958594
7 *59:14 *72:14 3.81391e-05
8 *59:14 *86:27 2.4754e-05
9 *59:14 *87:18 0.000185428
10 *59:14 *87:22 0
11 *59:37 *221:A_N 5.73309e-05
12 *59:37 *221:B 2.57636e-05
13 *59:37 *246:A 5.79559e-05
14 *59:37 *60:12 9.4697e-05
15 *59:37 *60:31 5.40241e-05
16 *59:37 *86:27 1.72202e-05
17 *59:37 *86:57 5.12408e-05
18 *245:B *59:14 1.40088e-06
19 *248:C *59:37 9.41704e-05
20 *16:16 *59:37 7.4469e-06
21 *57:108 *59:37 1.66293e-05
*RES
1 *244:Y *59:4 23 
2 *59:4 *59:14 34.3086 
3 *59:14 *245:C 23 
4 *59:4 *59:37 41.7036 
5 *59:37 *247:B 23 
*END

*D_NET *60 0.00493704
*CONN
*I *252:C I *D sky130_fd_sc_hd__and3_1
*I *249:B I *D sky130_fd_sc_hd__and2_1
*I *250:B I *D sky130_fd_sc_hd__or2_1
*I *248:A_N I *D sky130_fd_sc_hd__and3b_1
*I *246:X O *D sky130_fd_sc_hd__and3_1
*CAP
1 *252:C 0
2 *249:B 0.000344377
3 *250:B 0.000227006
4 *248:A_N 0
5 *246:X 9.67546e-05
6 *60:35 0.000826468