* NGSPICE file created from freq_psc.ext - technology: sky130A

* Black-box entry subcircuit for sky130_fd_sc_hd__a211o_1 abstract view
.subckt sky130_fd_sc_hd__a211o_1 A1 A2 B1 C1 VGND VNB VPB VPWR X
.ends

* Black-box entry subcircuit for sky130_fd_sc_hd__dfrtp_1 abstract view
.subckt sky130_fd_sc_hd__dfrtp_1 CLK D RESET_B VGND VNB VPB VPWR Q
.ends

* Black-box entry subcircuit for sky130_fd_sc_hd__o211a_1 abstract view
.subckt sky130_fd_sc_hd__o211a_1 A1 A2 B1 C1 VGND VNB VPB VPWR X
.ends

* Black-box entry subcircuit for sky130_fd_sc_hd__or2_1 abstract view
.subckt sky130_fd_sc_hd__or2_1 A B VGND VNB VPB VPWR X
.ends

* Black-box entry subcircuit for sky130_fd_sc_hd__fill_1 abstract view
.subckt sky130_fd_sc_hd__fill_1 VGND VNB VPB VPWR
.ends

* Black-box entry subcircuit for sky130_fd_sc_hd__and3_1 abstract view
.subckt sky130_fd_sc_hd__and3_1 A B C VGND VNB VPB VPWR X
.ends

* Black-box entry subcircuit for sky130_fd_sc_hd__and2b_1 abstract view
.subckt sky130_fd_sc_hd__and2b_1 A_N B VGND VNB VPB VPWR X
.ends

* Black-box entry subcircuit for sky130_fd_sc_hd__decap_6 abstract view
.subckt sky130_fd_sc_hd__decap_6 VGND VNB VPB VPWR
.ends

* Black-box entry subcircuit for sky130_fd_sc_hd__a221oi_1 abstract view
.subckt sky130_fd_sc_hd__a221oi_1 A1 A2 B1 B2 C1 VGND VNB VPB VPWR Y
.ends

* Black-box entry subcircuit for sky130_fd_sc_hd__decap_4 abstract view
.subckt sky130_fd_sc_hd__decap_4 VGND VNB VPB VPWR
.ends

* Black-box entry subcircuit for sky130_fd_sc_hd__fill_2 abstract view
.subckt sky130_fd_sc_hd__fill_2 VGND VNB VPB VPWR
.ends

* Black-box entry subcircuit for sky130_fd_sc_hd__decap_3 abstract view
.subckt sky130_fd_sc_hd__decap_3 VGND VNB VPB VPWR
.ends

* Black-box entry subcircuit for sky130_fd_sc_hd__o22a_1 abstract view
.subckt sky130_fd_sc_hd__o22a_1 A1 A2 B1 B2 VGND VNB VPB VPWR X
.ends

* Black-box entry subcircuit for sky130_ef_sc_hd__decap_12 abstract view
.subckt sky130_ef_sc_hd__decap_12 VPWR VGND VPB VNB
.ends

* Black-box entry subcircuit for sky130_fd_sc_hd__decap_8 abstract view
.subckt sky130_fd_sc_hd__decap_8 VGND VNB VPB VPWR
.ends

* Black-box entry subcircuit for sky130_fd_sc_hd__tapvpwrvgnd_1 abstract view
.subckt sky130_fd_sc_hd__tapvpwrvgnd_1 VGND VPWR
.ends

* Black-box entry subcircuit for sky130_fd_sc_hd__nand2_1 abstract view
.subckt sky130_fd_sc_hd__nand2_1 A B VGND VNB VPB VPWR Y
.ends

* Black-box entry subcircuit for sky130_fd_sc_hd__and3b_1 abstract view
.subckt sky130_fd_sc_hd__and3b_1 A_N B C VGND VNB VPB VPWR X
.ends

* Black-box entry subcircuit for sky130_fd_sc_hd__xnor2_1 abstract view
.subckt sky130_fd_sc_hd__xnor2_1 A B VGND VNB VPB VPWR Y
.ends

* Black-box entry subcircuit for sky130_fd_sc_hd__inv_2 abstract view
.subckt sky130_fd_sc_hd__inv_2 A VGND VNB VPB VPWR Y
.ends

* Black-box entry subcircuit for sky130_fd_sc_hd__a21oi_1 abstract view
.subckt sky130_fd_sc_hd__a21oi_1 A1 A2 B1 VGND VNB VPB VPWR Y
.ends

* Black-box entry subcircuit for sky130_fd_sc_hd__and2_1 abstract view
.subckt sky130_fd_sc_hd__and2_1 A B VGND VNB VPB VPWR X
.ends

* Black-box entry subcircuit for sky130_fd_sc_hd__a21oi_4 abstract view
.subckt sky130_fd_sc_hd__a21oi_4 A1 A2 B1 VGND VNB VPB VPWR Y
.ends

* Black-box entry subcircuit for sky130_fd_sc_hd__and4_1 abstract view
.subckt sky130_fd_sc_hd__and4_1 A B C D VGND VNB VPB VPWR X
.ends

* Black-box entry subcircuit for sky130_fd_sc_hd__a21o_1 abstract view
.subckt sky130_fd_sc_hd__a21o_1 A1 A2 B1 VGND VNB VPB VPWR X
.ends

* Black-box entry subcircuit for sky130_fd_sc_hd__or3_4 abstract view
.subckt sky130_fd_sc_hd__or3_4 A B C VGND VNB VPB VPWR X
.ends

* Black-box entry subcircuit for sky130_fd_sc_hd__nor2_1 abstract view
.subckt sky130_fd_sc_hd__nor2_1 A B VGND VNB VPB VPWR Y
.ends

* Black-box entry subcircuit for sky130_fd_sc_hd__buf_2 abstract view
.subckt sky130_fd_sc_hd__buf_2 A VGND VNB VPB VPWR X
.ends

* Black-box entry subcircuit for sky130_fd_sc_hd__o221a_1 abstract view
.subckt sky130_fd_sc_hd__o221a_1 A1 A2 B1 B2 C1 VGND VNB VPB VPWR X
.ends

* Black-box entry subcircuit for sky130_fd_sc_hd__and4b_1 abstract view
.subckt sky130_fd_sc_hd__and4b_1 A_N B C D VGND VNB VPB VPWR X
.ends

* Black-box entry subcircuit for sky130_fd_sc_hd__clkinv_2 abstract view
.subckt sky130_fd_sc_hd__clkinv_2 A VGND VNB VPB VPWR Y
.ends

* Black-box entry subcircuit for sky130_fd_sc_hd__o21ba_1 abstract view
.subckt sky130_fd_sc_hd__o21ba_1 A1 A2 B1_N VGND VNB VPB VPWR X
.ends

* Black-box entry subcircuit for sky130_fd_sc_hd__or4_4 abstract view
.subckt sky130_fd_sc_hd__or4_4 A B C D VGND VNB VPB VPWR X
.ends

* Black-box entry subcircuit for sky130_fd_sc_hd__clkbuf_4 abstract view
.subckt sky130_fd_sc_hd__clkbuf_4 A VGND VNB VPB VPWR X
.ends

* Black-box entry subcircuit for sky130_fd_sc_hd__nand2b_1 abstract view
.subckt sky130_fd_sc_hd__nand2b_1 A_N B VGND VNB VPB VPWR Y
.ends

* Black-box entry subcircuit for sky130_fd_sc_hd__o21ai_1 abstract view
.subckt sky130_fd_sc_hd__o21ai_1 A1 A2 B1 VGND VNB VPB VPWR Y
.ends

* Black-box entry subcircuit for sky130_fd_sc_hd__a2111o_1 abstract view
.subckt sky130_fd_sc_hd__a2111o_1 A1 A2 B1 C1 D1 VGND VNB VPB VPWR X
.ends

* Black-box entry subcircuit for sky130_fd_sc_hd__clkbuf_16 abstract view
.subckt sky130_fd_sc_hd__clkbuf_16 A VGND VNB VPB VPWR X
.ends

* Black-box entry subcircuit for sky130_fd_sc_hd__buf_4 abstract view
.subckt sky130_fd_sc_hd__buf_4 A VGND VNB VPB VPWR X
.ends

* Black-box entry subcircuit for sky130_fd_sc_hd__dlygate4sd3_1 abstract view
.subckt sky130_fd_sc_hd__dlygate4sd3_1 A VGND VNB VPB VPWR X
.ends

* Black-box entry subcircuit for sky130_fd_sc_hd__o21a_1 abstract view
.subckt sky130_fd_sc_hd__o21a_1 A1 A2 B1 VGND VNB VPB VPWR X
.ends

* Black-box entry subcircuit for sky130_fd_sc_hd__clkbuf_1 abstract view
.subckt sky130_fd_sc_hd__clkbuf_1 A VGND VNB VPB VPWR X
.ends

* Black-box entry subcircuit for sky130_fd_sc_hd__and4_2 abstract view
.subckt sky130_fd_sc_hd__and4_2 A B C D VGND VNB VPB VPWR X
.ends

* Black-box entry subcircuit for sky130_fd_sc_hd__buf_6 abstract view
.subckt sky130_fd_sc_hd__buf_6 A VGND VNB VPB VPWR X
.ends

* Black-box entry subcircuit for sky130_fd_sc_hd__a31o_1 abstract view
.subckt sky130_fd_sc_hd__a31o_1 A1 A2 A3 B1 VGND VNB VPB VPWR X
.ends

* Black-box entry subcircuit for sky130_fd_sc_hd__a22o_1 abstract view
.subckt sky130_fd_sc_hd__a22o_1 A1 A2 B1 B2 VGND VNB VPB VPWR X
.ends

* Black-box entry subcircuit for sky130_fd_sc_hd__o32a_1 abstract view
.subckt sky130_fd_sc_hd__o32a_1 A1 A2 A3 B1 B2 VGND VNB VPB VPWR X
.ends

* Black-box entry subcircuit for sky130_fd_sc_hd__a22oi_1 abstract view
.subckt sky130_fd_sc_hd__a22oi_1 A1 A2 B1 B2 VGND VNB VPB VPWR Y
.ends

* Black-box entry subcircuit for sky130_fd_sc_hd__buf_1 abstract view
.subckt sky130_fd_sc_hd__buf_1 A VGND VNB VPB VPWR X
.ends

* Black-box entry subcircuit for sky130_fd_sc_hd__a32o_1 abstract view
.subckt sky130_fd_sc_hd__a32o_1 A1 A2 A3 B1 B2 VGND VNB VPB VPWR X
.ends

* Black-box entry subcircuit for sky130_fd_sc_hd__dfrtp_2 abstract view
.subckt sky130_fd_sc_hd__dfrtp_2 CLK D RESET_B VGND VNB VPB VPWR Q
.ends

* Black-box entry subcircuit for sky130_fd_sc_hd__nand3_1 abstract view
.subckt sky130_fd_sc_hd__nand3_1 A B C VGND VNB VPB VPWR Y
.ends

* Black-box entry subcircuit for sky130_fd_sc_hd__or3_1 abstract view
.subckt sky130_fd_sc_hd__or3_1 A B C VGND VNB VPB VPWR X
.ends

* Black-box entry subcircuit for sky130_fd_sc_hd__or4b_4 abstract view
.subckt sky130_fd_sc_hd__or4b_4 A B C D_N VGND VNB VPB VPWR X
.ends

* Black-box entry subcircuit for sky130_fd_sc_hd__clkbuf_2 abstract view
.subckt sky130_fd_sc_hd__clkbuf_2 A VGND VNB VPB VPWR X
.ends

* Black-box entry subcircuit for sky130_fd_sc_hd__or4_1 abstract view
.subckt sky130_fd_sc_hd__or4_1 A B C D VGND VNB VPB VPWR X
.ends

* Black-box entry subcircuit for sky130_fd_sc_hd__a21boi_1 abstract view
.subckt sky130_fd_sc_hd__a21boi_1 A1 A2 B1_N VGND VNB VPB VPWR Y
.ends

* Black-box entry subcircuit for sky130_fd_sc_hd__dlygate4sd1_1 abstract view
.subckt sky130_fd_sc_hd__dlygate4sd1_1 A VGND VNB VPB VPWR X
.ends

* Black-box entry subcircuit for sky130_fd_sc_hd__a2bb2o_1 abstract view
.subckt sky130_fd_sc_hd__a2bb2o_1 A1_N A2_N B1 B2 VGND VNB VPB VPWR X
.ends

.subckt freq_psc VGND VPWR clk out psc[0] psc[1] psc[2] psc[3] psc[4] psc[5] psc[6] psc[7] psc[8] psc[9] psc[10] psc[11]
+psc[12] psc[13] psc[14] psc[15] psc[16] psc[17] psc[18] psc[19] psc[20] psc[21] psc[22] psc[23] psc[24] psc[25] psc[26]
+psc[27] psc[28] psc[29] psc[30] psc[31] rst

X_294_ _118_ _120_ _122_ _101_ VGND VGND VPWR VPWR _123_ sky130_fd_sc_hd__a211o_1
X_501_ clknet_2_2__leaf_clk _021_ _061_ VGND VGND VPWR VPWR psc_cnt\[29\] sky130_fd_sc_hd__dfrtp_1
X_432_ psc_cnt\[28\] _230_ _231_ net44 VGND VGND VPWR VPWR _020_ sky130_fd_sc_hd__o211a_1
X_363_ psc_cnt\[6\] _184_ VGND VGND VPWR VPWR _185_ sky130_fd_sc_hd__or2_1
XFILLER_3_23 VGND VGND VPWR VPWR sky130_fd_sc_hd__fill_1
X_415_ net35 _218_ _220_ VGND VGND VPWR VPWR _014_ sky130_fd_sc_hd__and3_1
X_346_ psc_cnt\[0\] net35 VGND VGND VPWR VPWR _000_ sky130_fd_sc_hd__and2b_1
XFILLER_12_21 VGND VGND VPWR VPWR sky130_fd_sc_hd__decap_6
XFILLER_12_98 VGND VGND VPWR VPWR sky130_fd_sc_hd__decap_6
X_277_ net2 _079_ net32 _080_ _104_ VGND VGND VPWR VPWR _106_ sky130_fd_sc_hd__a221oi_1
XFILLER_5_140 VGND VGND VPWR VPWR sky130_fd_sc_hd__decap_4
XFILLER_5_151 VGND VGND VPWR VPWR sky130_fd_sc_hd__fill_2
XFILLER_0_57 VGND VGND VPWR VPWR sky130_fd_sc_hd__decap_3
XFILLER_0_24 VGND VGND VPWR VPWR sky130_fd_sc_hd__decap_4
X_329_ _066_ net17 _091_ net18 VGND VGND VPWR VPWR _158_ sky130_fd_sc_hd__o22a_1
XFILLER_9_22 VGND VGND VPWR VPWR sky130_fd_sc_hd__fill_2
XFILLER_9_33 VPWR VGND VPWR VGND sky130_ef_sc_hd__decap_12
XFILLER_9_55 VGND VGND VPWR VPWR sky130_fd_sc_hd__fill_1
XFILLER_15_6 VGND VGND VPWR VPWR sky130_fd_sc_hd__decap_8
XTAP_TAPCELL_ROW_5_67 VGND VPWR sky130_fd_sc_hd__tapvpwrvgnd_1
XFILLER_20_21 VGND VGND VPWR VPWR sky130_fd_sc_hd__decap_6
XFILLER_13_3 VGND VGND VPWR VPWR sky130_fd_sc_hd__fill_1
XFILLER_15_43 VGND VGND VPWR VPWR sky130_fd_sc_hd__fill_2
XFILLER_22_101 VGND VGND VPWR VPWR sky130_fd_sc_hd__fill_1
X_293_ _121_ _103_ VGND VGND VPWR VPWR _122_ sky130_fd_sc_hd__and2b_1
X_500_ clknet_2_2__leaf_clk _020_ _060_ VGND VGND VPWR VPWR psc_cnt\[28\] sky130_fd_sc_hd__dfrtp_1
X_431_ psc_cnt\[28\] _230_ VGND VGND VPWR VPWR _231_ sky130_fd_sc_hd__nand2_1
XFILLER_13_134 VGND VGND VPWR VPWR sky130_fd_sc_hd__decap_8
X_362_ _184_ _182_ net38 VGND VGND VPWR VPWR _027_ sky130_fd_sc_hd__and3b_1
XFILLER_3_79 VGND VGND VPWR VPWR sky130_fd_sc_hd__fill_1
XFILLER_9_105 VGND VGND VPWR VPWR sky130_fd_sc_hd__decap_6
XFILLER_9_138 VGND VGND VPWR VPWR sky130_fd_sc_hd__decap_6
XFILLER_10_148 VGND VGND VPWR VPWR sky130_fd_sc_hd__fill_2
XFILLER_12_77 VGND VGND VPWR VPWR sky130_fd_sc_hd__decap_6
X_276_ net3 _078_ net2 _079_ VGND VGND VPWR VPWR _105_ sky130_fd_sc_hd__o22a_1
X_345_ net59 net35 VGND VGND VPWR VPWR _065_ sky130_fd_sc_hd__xnor2_1
X_414_ _214_ _219_ VGND VGND VPWR VPWR _220_ sky130_fd_sc_hd__nand2_1
XPHY_EDGE_ROW_21_Right_21 VGND VGND VPWR VPWR sky130_fd_sc_hd__decap_3
XPHY_EDGE_ROW_12_Right_12 VGND VGND VPWR VPWR sky130_fd_sc_hd__decap_3
XFILLER_23_98 VGND VGND VPWR VPWR sky130_fd_sc_hd__decap_6
XFILLER_0_69 VGND VGND VPWR VPWR sky130_fd_sc_hd__decap_4
X_259_ net12 VGND VGND VPWR VPWR _089_ sky130_fd_sc_hd__inv_2
X_328_ _069_ net13 _156_ VGND VGND VPWR VPWR _157_ sky130_fd_sc_hd__a21oi_1
XFILLER_9_45 VGND VGND VPWR VPWR sky130_fd_sc_hd__fill_1
XFILLER_18_76 VGND VGND VPWR VPWR sky130_fd_sc_hd__decap_8
XTAP_TAPCELL_ROW_5_68 VGND VPWR sky130_fd_sc_hd__tapvpwrvgnd_1
XFILLER_20_44 VGND VGND VPWR VPWR sky130_fd_sc_hd__fill_1
XFILLER_19_140 VGND VGND VPWR VPWR sky130_fd_sc_hd__fill_2
XFILLER_6_57 VGND VGND VPWR VPWR sky130_fd_sc_hd__fill_1
XFILLER_15_66 VPWR VGND VPWR VGND sky130_ef_sc_hd__decap_12
XPHY_EDGE_ROW_6_Right_6 VGND VGND VPWR VPWR sky130_fd_sc_hd__decap_3
X_292_ _104_ _105_ _107_ _108_ VGND VGND VPWR VPWR _121_ sky130_fd_sc_hd__o22a_1
X_361_ _179_ _183_ VGND VGND VPWR VPWR _184_ sky130_fd_sc_hd__and2_1
XFILLER_13_113 VGND VGND VPWR VPWR sky130_fd_sc_hd__fill_1
X_430_ _230_ net37 _228_ VGND VGND VPWR VPWR _019_ sky130_fd_sc_hd__and3b_1
XFILLER_3_36 VGND VGND VPWR VPWR sky130_fd_sc_hd__fill_2
XFILLER_3_69 VGND VGND VPWR VPWR sky130_fd_sc_hd__fill_1
XFILLER_12_45 VGND VGND VPWR VPWR sky130_fd_sc_hd__decap_3
X_275_ psc_cnt\[11\] net3 VGND VGND VPWR VPWR _104_ sky130_fd_sc_hd__and2b_1
X_413_ psc_cnt\[22\] psc_cnt\[21\] psc_cnt\[20\] VGND VGND VPWR VPWR _219_ sky130_fd_sc_hd__and3_1
X_344_ _123_ _164_ _172_ VGND VGND VPWR VPWR _173_ sky130_fd_sc_hd__a21oi_4
XFILLER_23_55 VGND VGND VPWR VPWR sky130_fd_sc_hd__fill_1
XFILLER_3_3 VPWR VGND VPWR VGND sky130_ef_sc_hd__decap_12
XTAP_TAPCELL_ROW_18_99 VGND VPWR sky130_fd_sc_hd__tapvpwrvgnd_1
X_327_ psc_cnt\[28\] net21 VGND VGND VPWR VPWR _156_ sky130_fd_sc_hd__and2b_1
X_258_ net23 VGND VGND VPWR VPWR _088_ sky130_fd_sc_hd__inv_2
XFILLER_18_88 VGND VGND VPWR VPWR sky130_fd_sc_hd__fill_2
XPHY_EDGE_ROW_12_Left_38 VGND VGND VPWR VPWR sky130_fd_sc_hd__decap_3
XFILLER_20_6 VGND VGND VPWR VPWR sky130_fd_sc_hd__decap_6
XFILLER_19_152 VGND VGND VPWR VPWR sky130_fd_sc_hd__fill_1
XFILLER_19_130 VGND VGND VPWR VPWR sky130_fd_sc_hd__decap_6
XFILLER_25_111 VGND VGND VPWR VPWR sky130_fd_sc_hd__fill_1
XFILLER_16_144 VGND VGND VPWR VPWR sky130_fd_sc_hd__decap_3
XFILLER_16_122 VGND VGND VPWR VPWR sky130_fd_sc_hd__decap_8
XFILLER_16_100 VGND VGND VPWR VPWR sky130_fd_sc_hd__fill_1
XFILLER_15_78 VPWR VGND VPWR VGND sky130_ef_sc_hd__decap_12
XTAP_TAPCELL_ROW_2_59 VGND VPWR sky130_fd_sc_hd__tapvpwrvgnd_1
X_291_ _103_ _105_ _106_ _119_ VGND VGND VPWR VPWR _120_ sky130_fd_sc_hd__and4_1
XPHY_EDGE_ROW_15_Left_41 VGND VGND VPWR VPWR sky130_fd_sc_hd__decap_3
X_360_ psc_cnt\[5\] psc_cnt\[4\] VGND VGND VPWR VPWR _183_ sky130_fd_sc_hd__and2_1
XFILLER_3_48 VGND VGND VPWR VPWR sky130_fd_sc_hd__fill_1
XFILLER_3_15 VGND VGND VPWR VPWR sky130_fd_sc_hd__decap_3
X_489_ clknet_2_1__leaf_clk _008_ _049_ VGND VGND VPWR VPWR psc_cnt\[17\] sky130_fd_sc_hd__dfrtp_1
XPHY_EDGE_ROW_0_Left_26 VGND VGND VPWR VPWR sky130_fd_sc_hd__decap_3
XFILLER_10_139 VGND VGND VPWR VPWR sky130_fd_sc_hd__fill_1
X_274_ _097_ _098_ _099_ _102_ VGND VGND VPWR VPWR _103_ sky130_fd_sc_hd__and4_1
X_412_ psc_cnt\[21\] _216_ psc_cnt\[22\] VGND VGND VPWR VPWR _218_ sky130_fd_sc_hd__a21o_1
XFILLER_5_132 VGND VGND VPWR VPWR sky130_fd_sc_hd__fill_1
X_343_ _171_ _169_ _166_ VGND VGND VPWR VPWR _172_ sky130_fd_sc_hd__or3_4
XFILLER_0_16 VGND VGND VPWR VPWR sky130_fd_sc_hd__decap_4
X_326_ _094_ net22 net21 _093_ VGND VGND VPWR VPWR _155_ sky130_fd_sc_hd__o22a_1
X_257_ net26 VGND VGND VPWR VPWR _087_ sky130_fd_sc_hd__inv_2
XFILLER_18_12 VGND VGND VPWR VPWR sky130_fd_sc_hd__fill_1
X_309_ _136_ _137_ VGND VGND VPWR VPWR _138_ sky130_fd_sc_hd__nor2_1
XFILLER_20_68 VGND VGND VPWR VPWR sky130_fd_sc_hd__fill_1
XFILLER_6_15 VPWR VGND VPWR VGND sky130_ef_sc_hd__decap_12
XFILLER_19_120 VGND VGND VPWR VPWR sky130_fd_sc_hd__fill_2
XFILLER_15_35 VGND VGND VPWR VPWR sky130_fd_sc_hd__decap_8
Xoutput34 net34 VGND VGND VPWR VPWR out sky130_fd_sc_hd__buf_2
XFILLER_16_112 VGND VGND VPWR VPWR sky130_fd_sc_hd__decap_3
XFILLER_13_104 VGND VGND VPWR VPWR sky130_fd_sc_hd__decap_3
X_290_ psc_cnt\[8\] _082_ _083_ psc_cnt\[7\] _108_ VGND VGND VPWR VPWR _119_ sky130_fd_sc_hd__o221a_1
XFILLER_13_126 VGND VGND VPWR VPWR sky130_fd_sc_hd__decap_4
X_488_ clknet_2_1__leaf_clk _007_ _048_ VGND VGND VPWR VPWR psc_cnt\[16\] sky130_fd_sc_hd__dfrtp_1
X_273_ _077_ net4 _096_ VGND VGND VPWR VPWR _102_ sky130_fd_sc_hd__a21oi_1
X_411_ psc_cnt\[21\] _216_ _217_ net35 VGND VGND VPWR VPWR _013_ sky130_fd_sc_hd__o211a_1
XFILLER_5_144 VGND VGND VPWR VPWR sky130_fd_sc_hd__fill_1
X_342_ _162_ _135_ _158_ _170_ VGND VGND VPWR VPWR _171_ sky130_fd_sc_hd__and4b_1
X_325_ _152_ net47 VGND VGND VPWR VPWR _154_ sky130_fd_sc_hd__nor2_1
X_256_ net27 VGND VGND VPWR VPWR _086_ sky130_fd_sc_hd__inv_2
Xclkload0 clknet_2_0__leaf_clk VGND VGND VPWR VPWR clkload0/Y sky130_fd_sc_hd__clkinv_2
X_308_ net19 psc_cnt\[26\] VGND VGND VPWR VPWR _137_ sky130_fd_sc_hd__and2b_1
XFILLER_1_82 VPWR VGND VPWR VGND sky130_ef_sc_hd__decap_12
X_239_ psc_cnt\[20\] VGND VGND VPWR VPWR _069_ sky130_fd_sc_hd__inv_2
XTAP_TAPCELL_ROW_10_80 VGND VPWR sky130_fd_sc_hd__tapvpwrvgnd_1
XFILLER_6_27 VGND VGND VPWR VPWR sky130_fd_sc_hd__fill_1
XFILLER_6_38 VGND VGND VPWR VPWR sky130_fd_sc_hd__decap_8
XTAP_TAPCELL_ROW_6_70 VGND VPWR sky130_fd_sc_hd__tapvpwrvgnd_1
XFILLER_25_113 VGND VGND VPWR VPWR sky130_fd_sc_hd__fill_2
XFILLER_15_14 VGND VGND VPWR VPWR sky130_fd_sc_hd__fill_1
XPHY_EDGE_ROW_19_Right_19 VGND VGND VPWR VPWR sky130_fd_sc_hd__decap_3
XFILLER_22_116 VPWR VGND VPWR VGND sky130_ef_sc_hd__decap_12
X_487_ clknet_2_2__leaf_clk _006_ _047_ VGND VGND VPWR VPWR psc_cnt\[15\] sky130_fd_sc_hd__dfrtp_1
X_272_ _097_ _100_ _096_ VGND VGND VPWR VPWR _101_ sky130_fd_sc_hd__a21oi_1
X_410_ psc_cnt\[21\] _216_ VGND VGND VPWR VPWR _217_ sky130_fd_sc_hd__nand2_1
X_341_ _132_ _159_ _144_ VGND VGND VPWR VPWR _170_ sky130_fd_sc_hd__o21ba_1
XFILLER_12_37 VGND VGND VPWR VPWR sky130_fd_sc_hd__fill_1
X_324_ _151_ _148_ _150_ _147_ VGND VGND VPWR VPWR _153_ sky130_fd_sc_hd__or4_4
X_255_ net28 VGND VGND VPWR VPWR _085_ sky130_fd_sc_hd__inv_2
XFILLER_13_91 VGND VGND VPWR VPWR sky130_fd_sc_hd__decap_4
XFILLER_18_69 VGND VGND VPWR VPWR sky130_fd_sc_hd__fill_2
XFILLER_1_3 VGND VGND VPWR VPWR sky130_fd_sc_hd__decap_6
Xclkload1 clknet_2_1__leaf_clk VGND VGND VPWR VPWR clkload1/X sky130_fd_sc_hd__clkbuf_4
X_238_ net14 VGND VGND VPWR VPWR _068_ sky130_fd_sc_hd__inv_2
XFILLER_1_94 VPWR VGND VPWR VGND sky130_ef_sc_hd__decap_12
X_307_ net20 psc_cnt\[27\] VGND VGND VPWR VPWR _136_ sky130_fd_sc_hd__and2b_1
XTAP_TAPCELL_ROW_10_81 VGND VPWR sky130_fd_sc_hd__tapvpwrvgnd_1
XFILLER_19_111 VGND VGND VPWR VPWR sky130_fd_sc_hd__fill_1
XTAP_TAPCELL_ROW_6_71 VGND VPWR sky130_fd_sc_hd__tapvpwrvgnd_1
XFILLER_15_48 VGND VGND VPWR VPWR sky130_fd_sc_hd__decap_8
XFILLER_22_128 VPWR VGND VPWR VGND sky130_ef_sc_hd__decap_12
XTAP_TAPCELL_ROW_23_112 VGND VPWR sky130_fd_sc_hd__tapvpwrvgnd_1
X_486_ clknet_2_2__leaf_clk _005_ _046_ VGND VGND VPWR VPWR psc_cnt\[14\] sky130_fd_sc_hd__dfrtp_1
XTAP_TAPCELL_ROW_20_104 VGND VPWR sky130_fd_sc_hd__tapvpwrvgnd_1
XPHY_EDGE_ROW_19_Left_45 VGND VGND VPWR VPWR sky130_fd_sc_hd__decap_3
XFILLER_12_27 VGND VGND VPWR VPWR sky130_fd_sc_hd__fill_1
X_271_ _099_ _098_ VGND VGND VPWR VPWR _100_ sky130_fd_sc_hd__nand2b_1
X_340_ _161_ _167_ _168_ VGND VGND VPWR VPWR _169_ sky130_fd_sc_hd__o21ai_1
XFILLER_23_15 VPWR VGND VPWR VGND sky130_ef_sc_hd__decap_12
X_469_ net41 VGND VGND VPWR VPWR _062_ sky130_fd_sc_hd__inv_2
X_323_ _094_ net22 VGND VGND VPWR VPWR _152_ sky130_fd_sc_hd__and2_1
X_254_ net29 VGND VGND VPWR VPWR _084_ sky130_fd_sc_hd__inv_2
XFILLER_2_149 VGND VGND VPWR VPWR sky130_fd_sc_hd__fill_1
XFILLER_2_127 VPWR VGND VPWR VGND sky130_ef_sc_hd__decap_12
Xclkload2 clknet_2_3__leaf_clk VGND VGND VPWR VPWR clkload2/Y sky130_fd_sc_hd__clkinv_2
X_237_ net15 VGND VGND VPWR VPWR _067_ sky130_fd_sc_hd__inv_2
X_306_ _067_ psc_cnt\[22\] _131_ _133_ _134_ VGND VGND VPWR VPWR _135_ sky130_fd_sc_hd__a2111o_1
XFILLER_20_27 VGND VGND VPWR VPWR sky130_fd_sc_hd__fill_1
XPHY_EDGE_ROW_7_Left_33 VGND VGND VPWR VPWR sky130_fd_sc_hd__decap_3
XFILLER_25_104 VGND VGND VPWR VPWR sky130_fd_sc_hd__decap_4
XFILLER_16_104 VGND VGND VPWR VPWR sky130_fd_sc_hd__decap_8
XPHY_EDGE_ROW_1_Right_1 VGND VGND VPWR VPWR sky130_fd_sc_hd__decap_3
XFILLER_11_6 VGND VGND VPWR VPWR sky130_fd_sc_hd__fill_1
XTAP_TAPCELL_ROW_23_113 VGND VPWR sky130_fd_sc_hd__tapvpwrvgnd_1
X_485_ clknet_2_2__leaf_clk _004_ _045_ VGND VGND VPWR VPWR psc_cnt\[13\] sky130_fd_sc_hd__dfrtp_1
XTAP_TAPCELL_ROW_3_62 VGND VPWR sky130_fd_sc_hd__tapvpwrvgnd_1
XTAP_TAPCELL_ROW_20_105 VGND VPWR sky130_fd_sc_hd__tapvpwrvgnd_1
X_270_ net5 _076_ _077_ net4 VGND VGND VPWR VPWR _099_ sky130_fd_sc_hd__o22a_1
XPHY_EDGE_ROW_20_Left_46 VGND VGND VPWR VPWR sky130_fd_sc_hd__decap_3
X_468_ net41 VGND VGND VPWR VPWR _061_ sky130_fd_sc_hd__inv_2
X_399_ psc_cnt\[17\] _208_ VGND VGND VPWR VPWR _210_ sky130_fd_sc_hd__or2_1
XFILLER_23_27 VPWR VGND VPWR VGND sky130_ef_sc_hd__decap_12
X_322_ psc_cnt\[30\] net24 VGND VGND VPWR VPWR _151_ sky130_fd_sc_hd__and2b_1
XFILLER_2_139 VGND VGND VPWR VPWR sky130_fd_sc_hd__fill_1
X_253_ net30 VGND VGND VPWR VPWR _083_ sky130_fd_sc_hd__inv_2
XTAP_TAPCELL_ROW_0_52 VGND VPWR sky130_fd_sc_hd__tapvpwrvgnd_1
XFILLER_18_27 VGND VGND VPWR VPWR sky130_fd_sc_hd__fill_1
X_305_ net14 psc_cnt\[21\] VGND VGND VPWR VPWR _134_ sky130_fd_sc_hd__and2b_1
X_236_ psc_cnt\[24\] VGND VGND VPWR VPWR _066_ sky130_fd_sc_hd__inv_2
XFILLER_1_52 VGND VGND VPWR VPWR sky130_fd_sc_hd__decap_4
XFILLER_19_92 VGND VGND VPWR VPWR sky130_fd_sc_hd__decap_6
XFILLER_25_138 VGND VGND VPWR VPWR sky130_fd_sc_hd__fill_2
XFILLER_16_138 VGND VGND VPWR VPWR sky130_fd_sc_hd__fill_2
Xclkbuf_0_clk clk VGND VGND VPWR VPWR clknet_0_clk sky130_fd_sc_hd__clkbuf_16
XPHY_EDGE_ROW_24_Right_24 VGND VGND VPWR VPWR sky130_fd_sc_hd__decap_3
XFILLER_21_152 VGND VGND VPWR VPWR sky130_fd_sc_hd__fill_1
XPHY_EDGE_ROW_15_Right_15 VGND VGND VPWR VPWR sky130_fd_sc_hd__decap_3
X_484_ clknet_2_3__leaf_clk _003_ _044_ VGND VGND VPWR VPWR psc_cnt\[12\] sky130_fd_sc_hd__dfrtp_1
XTAP_TAPCELL_ROW_3_63 VGND VPWR sky130_fd_sc_hd__tapvpwrvgnd_1
XTAP_TAPCELL_ROW_20_106 VGND VPWR sky130_fd_sc_hd__tapvpwrvgnd_1
XFILLER_12_29 VGND VGND VPWR VPWR sky130_fd_sc_hd__decap_8
XFILLER_5_126 VGND VGND VPWR VPWR sky130_fd_sc_hd__decap_6
X_467_ net41 VGND VGND VPWR VPWR _060_ sky130_fd_sc_hd__inv_2
X_398_ psc_cnt\[17\] psc_cnt\[16\] _205_ VGND VGND VPWR VPWR _209_ sky130_fd_sc_hd__and3_1
XFILLER_23_39 VPWR VGND VPWR VGND sky130_ef_sc_hd__decap_12
X_321_ psc_cnt\[31\] net25 VGND VGND VPWR VPWR _150_ sky130_fd_sc_hd__and2b_1
X_252_ net31 VGND VGND VPWR VPWR _082_ sky130_fd_sc_hd__inv_2
XTAP_TAPCELL_ROW_0_53 VGND VPWR sky130_fd_sc_hd__tapvpwrvgnd_1
Xfanout40 net33 VGND VGND VPWR VPWR net40 sky130_fd_sc_hd__buf_2
X_304_ net13 psc_cnt\[20\] VGND VGND VPWR VPWR _133_ sky130_fd_sc_hd__and2b_1
XFILLER_10_40 VGND VGND VPWR VPWR sky130_fd_sc_hd__fill_1
XFILLER_19_136 VGND VGND VPWR VPWR sky130_fd_sc_hd__fill_1
XFILLER_22_109 VGND VGND VPWR VPWR sky130_fd_sc_hd__decap_4
XFILLER_7_52 VGND VGND VPWR VPWR sky130_fd_sc_hd__decap_4
XFILLER_7_85 VGND VGND VPWR VPWR sky130_fd_sc_hd__fill_2
X_483_ clknet_2_3__leaf_clk _002_ _043_ VGND VGND VPWR VPWR psc_cnt\[11\] sky130_fd_sc_hd__dfrtp_1
XTAP_TAPCELL_ROW_16_94 VGND VPWR sky130_fd_sc_hd__tapvpwrvgnd_1
XFILLER_5_116 VGND VGND VPWR VPWR sky130_fd_sc_hd__decap_4
X_466_ net41 VGND VGND VPWR VPWR _059_ sky130_fd_sc_hd__inv_2
Xclkbuf_2_0__f_clk clknet_0_clk VGND VGND VPWR VPWR clknet_2_0__leaf_clk sky130_fd_sc_hd__clkbuf_16
X_397_ _208_ net36 _207_ VGND VGND VPWR VPWR _007_ sky130_fd_sc_hd__and3b_1
XFILLER_4_75 VGND VGND VPWR VPWR sky130_fd_sc_hd__fill_1
X_251_ psc_cnt\[8\] VGND VGND VPWR VPWR _081_ sky130_fd_sc_hd__inv_2
X_320_ _147_ net45 VGND VGND VPWR VPWR _149_ sky130_fd_sc_hd__nor2_1
XFILLER_1_152 VGND VGND VPWR VPWR sky130_fd_sc_hd__fill_1
XTAP_TAPCELL_ROW_0_54 VGND VPWR sky130_fd_sc_hd__tapvpwrvgnd_1
Xfanout41 net33 VGND VGND VPWR VPWR net41 sky130_fd_sc_hd__buf_4
XFILLER_18_29 VGND VGND VPWR VPWR sky130_fd_sc_hd__fill_1
X_449_ net42 VGND VGND VPWR VPWR _042_ sky130_fd_sc_hd__inv_2
XFILLER_24_83 VGND VGND VPWR VPWR sky130_fd_sc_hd__fill_1
X_303_ _067_ psc_cnt\[22\] _131_ VGND VGND VPWR VPWR _132_ sky130_fd_sc_hd__a21o_1
Xhold17 net34 VGND VGND VPWR VPWR net59 sky130_fd_sc_hd__dlygate4sd3_1
XFILLER_19_50 VGND VGND VPWR VPWR sky130_fd_sc_hd__decap_6
XFILLER_25_118 VPWR VGND VPWR VGND sky130_ef_sc_hd__decap_12
XFILLER_25_3 VPWR VGND VPWR VGND sky130_ef_sc_hd__decap_12
XFILLER_15_151 VGND VGND VPWR VPWR sky130_fd_sc_hd__fill_2
XFILLER_15_140 VGND VGND VPWR VPWR sky130_fd_sc_hd__fill_1
XFILLER_21_110 VGND VGND VPWR VPWR sky130_fd_sc_hd__fill_2
XTAP_TAPCELL_ROW_16_95 VGND VPWR sky130_fd_sc_hd__tapvpwrvgnd_1
XPHY_EDGE_ROW_5_Right_5 VGND VGND VPWR VPWR sky130_fd_sc_hd__decap_3
X_482_ clknet_2_3__leaf_clk _001_ _042_ VGND VGND VPWR VPWR psc_cnt\[10\] sky130_fd_sc_hd__dfrtp_1
X_465_ net41 VGND VGND VPWR VPWR _058_ sky130_fd_sc_hd__inv_2
X_396_ psc_cnt\[16\] _205_ VGND VGND VPWR VPWR _208_ sky130_fd_sc_hd__and2_1
XFILLER_2_109 VPWR VGND VPWR VGND sky130_ef_sc_hd__decap_12
X_250_ psc_cnt\[9\] VGND VGND VPWR VPWR _080_ sky130_fd_sc_hd__inv_2
Xfanout42 net33 VGND VGND VPWR VPWR net42 sky130_fd_sc_hd__clkbuf_4
XTAP_TAPCELL_ROW_0_55 VGND VPWR sky130_fd_sc_hd__tapvpwrvgnd_1
X_448_ net42 VGND VGND VPWR VPWR _041_ sky130_fd_sc_hd__inv_2
X_379_ psc_cnt\[11\] _195_ VGND VGND VPWR VPWR _196_ sky130_fd_sc_hd__or2_1
XFILLER_24_73 VGND VGND VPWR VPWR sky130_fd_sc_hd__decap_3
XFILLER_1_77 VGND VGND VPWR VPWR sky130_fd_sc_hd__fill_2
X_302_ net16 psc_cnt\[23\] VGND VGND VPWR VPWR _131_ sky130_fd_sc_hd__and2b_1
XFILLER_10_53 VPWR VGND VPWR VGND sky130_ef_sc_hd__decap_12
XPHY_EDGE_ROW_11_Left_37 VGND VGND VPWR VPWR sky130_fd_sc_hd__decap_3
XFILLER_24_141 VPWR VGND VPWR VGND sky130_ef_sc_hd__decap_12
XFILLER_7_43 VGND VGND VPWR VPWR sky130_fd_sc_hd__fill_2
XTAP_TAPCELL_ROW_16_96 VGND VPWR sky130_fd_sc_hd__tapvpwrvgnd_1
X_481_ clknet_2_3__leaf_clk _031_ _041_ VGND VGND VPWR VPWR psc_cnt\[9\] sky130_fd_sc_hd__dfrtp_1
XPHY_EDGE_ROW_20_Right_20 VGND VGND VPWR VPWR sky130_fd_sc_hd__decap_3
XFILLER_16_63 VGND VGND VPWR VPWR sky130_fd_sc_hd__fill_1
XFILLER_8_148 VGND VGND VPWR VPWR sky130_fd_sc_hd__fill_2
XPHY_EDGE_ROW_11_Right_11 VGND VGND VPWR VPWR sky130_fd_sc_hd__decap_3
XPHY_EDGE_ROW_14_Left_40 VGND VGND VPWR VPWR sky130_fd_sc_hd__decap_3
X_464_ net39 VGND VGND VPWR VPWR _057_ sky130_fd_sc_hd__inv_2
XFILLER_4_88 VGND VGND VPWR VPWR sky130_fd_sc_hd__decap_4
XFILLER_4_99 VPWR VGND VPWR VGND sky130_ef_sc_hd__decap_12
X_395_ psc_cnt\[16\] _205_ VGND VGND VPWR VPWR _207_ sky130_fd_sc_hd__or2_1
X_378_ _195_ _194_ net38 VGND VGND VPWR VPWR _001_ sky130_fd_sc_hd__and3b_1
X_447_ net42 VGND VGND VPWR VPWR _040_ sky130_fd_sc_hd__inv_2
XTAP_TAPCELL_ROW_0_56 VGND VPWR sky130_fd_sc_hd__tapvpwrvgnd_1
XFILLER_1_121 VGND VGND VPWR VPWR sky130_fd_sc_hd__decap_3
XFILLER_24_41 VPWR VGND VPWR VGND sky130_ef_sc_hd__decap_12
X_301_ psc_cnt\[16\] _073_ _127_ VGND VGND VPWR VPWR _130_ sky130_fd_sc_hd__o21a_1
XFILLER_10_65 VGND VGND VPWR VPWR sky130_fd_sc_hd__decap_6
XFILLER_10_76 VGND VGND VPWR VPWR sky130_fd_sc_hd__fill_2
XFILLER_7_22 VGND VGND VPWR VPWR sky130_fd_sc_hd__fill_1
X_480_ clknet_2_3__leaf_clk _030_ _040_ VGND VGND VPWR VPWR psc_cnt\[8\] sky130_fd_sc_hd__dfrtp_1
X_394_ _205_ net37 _206_ VGND VGND VPWR VPWR _006_ sky130_fd_sc_hd__and3b_1
XFILLER_4_141 VGND VGND VPWR VPWR sky130_fd_sc_hd__fill_1
XFILLER_4_152 VGND VGND VPWR VPWR sky130_fd_sc_hd__fill_1
X_463_ net39 VGND VGND VPWR VPWR _056_ sky130_fd_sc_hd__inv_2
XTAP_TAPCELL_ROW_13_87 VGND VPWR sky130_fd_sc_hd__tapvpwrvgnd_1
X_377_ psc_cnt\[10\] _188_ _192_ VGND VGND VPWR VPWR _195_ sky130_fd_sc_hd__and3_1
X_446_ net42 VGND VGND VPWR VPWR _039_ sky130_fd_sc_hd__inv_2
XFILLER_13_10 VGND VGND VPWR VPWR sky130_fd_sc_hd__fill_2
XFILLER_8_3 VGND VGND VPWR VPWR sky130_fd_sc_hd__decap_4
XTAP_TAPCELL_ROW_9_77 VGND VPWR sky130_fd_sc_hd__tapvpwrvgnd_1
XFILLER_24_53 VPWR VGND VPWR VGND sky130_ef_sc_hd__decap_12
X_300_ _072_ psc_cnt\[17\] VGND VGND VPWR VPWR _129_ sky130_fd_sc_hd__or2_1
X_429_ _205_ _222_ _229_ VGND VGND VPWR VPWR _230_ sky130_fd_sc_hd__and3_1
Xinput1 psc[0] VGND VGND VPWR VPWR net1 sky130_fd_sc_hd__clkbuf_1
XFILLER_18_151 VGND VGND VPWR VPWR sky130_fd_sc_hd__fill_2
XFILLER_21_98 VPWR VGND VPWR VGND sky130_ef_sc_hd__decap_12
XFILLER_23_3 VPWR VGND VPWR VGND sky130_ef_sc_hd__decap_12
XFILLER_21_113 VPWR VGND VPWR VGND sky130_ef_sc_hd__decap_12
XFILLER_16_10 VGND VGND VPWR VPWR sky130_fd_sc_hd__fill_1
XFILLER_12_113 VGND VGND VPWR VPWR sky130_fd_sc_hd__fill_1
XPHY_EDGE_ROW_9_Right_9 VGND VGND VPWR VPWR sky130_fd_sc_hd__decap_3
X_393_ _074_ _203_ VGND VGND VPWR VPWR _206_ sky130_fd_sc_hd__nand2_1
X_462_ net39 VGND VGND VPWR VPWR _055_ sky130_fd_sc_hd__inv_2
XTAP_TAPCELL_ROW_13_88 VGND VPWR sky130_fd_sc_hd__tapvpwrvgnd_1
XFILLER_13_66 VGND VGND VPWR VPWR sky130_fd_sc_hd__fill_2
XFILLER_13_55 VGND VGND VPWR VPWR sky130_fd_sc_hd__fill_1
XTAP_TAPCELL_ROW_9_78 VGND VPWR sky130_fd_sc_hd__tapvpwrvgnd_1
X_376_ psc_cnt\[10\] _193_ VGND VGND VPWR VPWR _194_ sky130_fd_sc_hd__or2_1
X_445_ net42 VGND VGND VPWR VPWR _038_ sky130_fd_sc_hd__inv_2
XFILLER_24_65 VGND VGND VPWR VPWR sky130_fd_sc_hd__decap_8
X_428_ psc_cnt\[24\] psc_cnt\[25\] psc_cnt\[26\] psc_cnt\[27\] VGND VGND VPWR VPWR
+ _229_ sky130_fd_sc_hd__and4_1
X_359_ psc_cnt\[4\] _179_ psc_cnt\[5\] VGND VGND VPWR VPWR _182_ sky130_fd_sc_hd__a21o_1
Xinput2 psc[10] VGND VGND VPWR VPWR net2 sky130_fd_sc_hd__clkbuf_1
XFILLER_19_98 VGND VGND VPWR VPWR sky130_fd_sc_hd__fill_1
XFILLER_18_141 VGND VGND VPWR VPWR sky130_fd_sc_hd__fill_1
XFILLER_15_111 VGND VGND VPWR VPWR sky130_fd_sc_hd__fill_1
XFILLER_21_125 VGND VGND VPWR VPWR sky130_fd_sc_hd__fill_1
XFILLER_16_88 VPWR VGND VPWR VGND sky130_ef_sc_hd__decap_12
XFILLER_7_151 VGND VGND VPWR VPWR sky130_fd_sc_hd__fill_2
X_392_ psc_cnt\[13\] psc_cnt\[12\] _197_ _204_ VGND VGND VPWR VPWR _205_ sky130_fd_sc_hd__and4_2
X_461_ net39 VGND VGND VPWR VPWR _054_ sky130_fd_sc_hd__inv_2
XPHY_EDGE_ROW_18_Left_44 VGND VGND VPWR VPWR sky130_fd_sc_hd__decap_3
XFILLER_1_113 VGND VGND VPWR VPWR sky130_fd_sc_hd__decap_8
Xfanout35 _173_ VGND VGND VPWR VPWR net35 sky130_fd_sc_hd__buf_6
X_375_ _193_ _191_ net38 VGND VGND VPWR VPWR _031_ sky130_fd_sc_hd__and3b_1
X_444_ net41 VGND VGND VPWR VPWR _037_ sky130_fd_sc_hd__inv_2
XPHY_EDGE_ROW_3_Left_29 VGND VGND VPWR VPWR sky130_fd_sc_hd__decap_3
X_427_ psc_cnt\[25\] psc_cnt\[26\] _225_ psc_cnt\[27\] VGND VGND VPWR VPWR _228_ sky130_fd_sc_hd__a31o_1
X_358_ net36 _180_ _181_ VGND VGND VPWR VPWR _026_ sky130_fd_sc_hd__and3_1
Xinput3 psc[11] VGND VGND VPWR VPWR net3 sky130_fd_sc_hd__clkbuf_1
XPHY_EDGE_ROW_18_Right_18 VGND VGND VPWR VPWR sky130_fd_sc_hd__decap_3
X_289_ _115_ _116_ _117_ VGND VGND VPWR VPWR _118_ sky130_fd_sc_hd__a21o_1