*SPEF "ieee 1481-1999"
*DESIGN "freq_psc"
*DATE "06:28:38 Saturday October 26, 2024"
*VENDOR "The OpenROAD Project"
*PROGRAM "OpenROAD"
*VERSION "edf00dff99f6c40d67a30c0e22a8191c5d2ed9d6"
*DESIGN_FLOW "NAME_SCOPE LOCAL" "PIN_CAP NONE"
*DIVIDER /
*DELIMITER :
*BUS_DELIMITER []
*T_UNIT 1 NS
*C_UNIT 1 PF
*R_UNIT 1 OHM
*L_UNIT 1 HENRY

*NAME_MAP
*3 clk
*4 out
*5 psc[0]
*6 psc[10]
*7 psc[11]
*8 psc[12]
*9 psc[13]
*10 psc[14]
*11 psc[15]
*12 psc[1]
*13 psc[2]
*14 psc[3]
*15 psc[4]
*16 psc[5]
*17 psc[6]
*18 psc[7]
*19 psc[8]
*20 psc[9]
*21 rst
*22 _000_
*23 _001_
*24 _002_
*25 _003_
*26 _004_
*27 _005_
*28 _006_
*29 _007_
*30 _008_
*31 _009_
*32 _010_
*33 _011_
*34 _012_
*35 _013_
*36 _014_
*37 _015_
*38 _016_
*39 _017_
*40 _018_
*41 _019_
*42 _020_
*43 _021_
*44 _022_
*45 _023_
*46 _024_
*47 _025_
*48 _026_
*49 _027_
*50 _028_
*51 _029_
*52 _030_
*53 _031_
*54 _032_
*55 _033_
*56 _034_
*57 _035_
*58 _036_
*59 _037_
*60 _038_
*61 _039_
*62 _040_
*63 _041_
*64 _042_
*65 _043_
*66 _044_
*67 _045_
*68 _046_
*69 _047_
*70 _048_
*71 _049_
*72 _050_
*73 _051_
*74 _052_
*75 _053_
*76 _054_
*77 _055_
*78 _056_
*79 _057_
*80 _058_
*81 _059_
*82 _060_
*83 _061_
*84 _062_
*85 _063_
*86 _064_
*87 _065_
*88 _066_
*89 _067_
*90 _068_
*91 _069_
*92 _070_
*93 _071_
*94 _072_
*95 _073_
*96 _074_
*97 _075_
*98 _076_
*99 _077_
*100 _078_
*101 _079_
*102 _080_
*103 _081_
*104 _082_
*105 _083_
*106 _084_
*107 _085_
*108 _086_
*109 _087_
*110 _088_
*111 _089_
*112 _090_
*113 _091_
*114 _092_
*115 _093_
*116 _094_
*117 _095_
*118 _096_
*119 _097_
*120 _098_
*121 _099_
*122 _100_
*123 _101_
*124 _102_
*125 _103_
*126 _104_
*127 _105_
*128 _106_
*129 _107_
*130 _108_
*131 _109_
*132 _110_
*133 _111_
*134 _112_
*135 clknet_0_clk
*136 clknet_1_0__leaf_clk
*137 clknet_1_1__leaf_clk
*138 net1
*139 net10
*140 net11
*141 net12
*142 net13
*143 net14
*144 net15
*145 net16
*146 net17
*147 net18
*148 net19
*149 net2
*150 net20
*151 net21
*152 net22
*153 net23
*154 net24
*155 net25
*156 net26
*157 net27
*158 net3
*159 net4
*160 net5
*161 net6
*162 net7
*163 net8
*164 net9
*165 psc_cnt\[0\]
*166 psc_cnt\[10\]
*167 psc_cnt\[11\]
*168 psc_cnt\[12\]
*169 psc_cnt\[13\]
*170 psc_cnt\[14\]
*171 psc_cnt\[15\]
*172 psc_cnt\[1\]
*173 psc_cnt\[2\]
*174 psc_cnt\[3\]
*175 psc_cnt\[4\]
*176 psc_cnt\[5\]
*177 psc_cnt\[6\]
*178 psc_cnt\[7\]
*179 psc_cnt\[8\]
*180 psc_cnt\[9\]
*181 FILLER_0_105
*182 FILLER_0_15
*183 FILLER_0_23
*184 FILLER_0_27
*185 FILLER_0_29
*186 FILLER_0_3
*187 FILLER_0_34
*188 FILLER_0_41
*189 FILLER_0_48
*190 FILLER_0_52
*191 FILLER_0_62
*192 FILLER_0_78
*193 FILLER_0_83
*194 FILLER_0_85
*195 FILLER_0_97
*196 FILLER_10_105
*197 FILLER_10_69
*198 FILLER_10_76
*199 FILLER_10_85
*200 FILLER_10_97
*201 FILLER_11_102
*202 FILLER_11_106
*203 FILLER_11_60
*204 FILLER_11_7
*205 FILLER_11_95
*206 FILLER_12_106
*207 FILLER_12_15
*208 FILLER_12_23
*209 FILLER_12_27
*210 FILLER_12_29
*211 FILLER_12_3
*212 FILLER_12_38
*213 FILLER_12_60
*214 FILLER_12_82
*215 FILLER_12_85
*216 FILLER_13_102
*217 FILLER_13_106
*218 FILLER_13_3
*219 FILLER_13_30
*220 FILLER_13_38
*221 FILLER_13_50
*222 FILLER_13_57
*223 FILLER_13_69
*224 FILLER_13_73
*225 FILLER_13_81
*226 FILLER_13_89
*227 FILLER_13_9
*228 FILLER_13_97
*229 FILLER_14_29
*230 FILLER_14_3
*231 FILLER_14_37
*232 FILLER_14_62
*233 FILLER_14_7
*234 FILLER_14_78
*235 FILLER_14_85
*236 FILLER_15_21
*237 FILLER_15_3
*238 FILLER_15_48
*239 FILLER_15_55
*240 FILLER_15_99
*241 FILLER_16_106
*242 FILLER_16_15
*243 FILLER_16_27
*244 FILLER_16_3
*245 FILLER_16_37
*246 FILLER_16_59
*247 FILLER_16_63
*248 FILLER_16_70
*249 FILLER_16_82
*250 FILLER_16_98
*251 FILLER_17_103
*252 FILLER_17_15
*253 FILLER_17_27
*254 FILLER_17_29
*255 FILLER_17_3
*256 FILLER_17_34
*257 FILLER_17_42
*258 FILLER_17_48
*259 FILLER_17_55
*260 FILLER_17_57
*261 FILLER_17_65
*262 FILLER_17_69
*263 FILLER_17_76
*264 FILLER_17_83
*265 FILLER_17_91
*266 FILLER_1_104
*267 FILLER_1_15
*268 FILLER_1_23
*269 FILLER_1_3
*270 FILLER_1_36
*271 FILLER_1_43
*272 FILLER_1_47
*273 FILLER_1_55
*274 FILLER_1_60
*275 FILLER_1_80
*276 FILLER_1_92
*277 FILLER_2_105
*278 FILLER_2_15
*279 FILLER_2_27
*280 FILLER_2_3
*281 FILLER_2_49
*282 FILLER_2_59
*283 FILLER_2_69
*284 FILLER_2_83
*285 FILLER_2_85
*286 FILLER_2_97
*287 FILLER_3_100
*288 FILLER_3_11
*289 FILLER_3_20
*290 FILLER_3_3
*291 FILLER_3_32
*292 FILLER_3_48
*293 FILLER_3_57
*294 FILLER_3_63
*295 FILLER_3_70
*296 FILLER_3_79
*297 FILLER_3_88
*298 FILLER_3_96
*299 FILLER_4_105
*300 FILLER_4_27
*301 FILLER_4_29
*302 FILLER_4_3
*303 FILLER_4_58
*304 FILLER_4_70
*305 FILLER_4_76
*306 FILLER_4_82
*307 FILLER_5_20
*308 FILLER_5_3
*309 FILLER_5_32
*310 FILLER_5_41
*311 FILLER_5_45
*312 FILLER_5_52
*313 FILLER_5_57
*314 FILLER_5_69
*315 FILLER_6_105
*316 FILLER_6_11
*317 FILLER_6_26
*318 FILLER_6_3
*319 FILLER_6_32
*320 FILLER_6_36
*321 FILLER_6_60
*322 FILLER_6_77
*323 FILLER_6_83
*324 FILLER_6_90
*325 FILLER_7_100
*326 FILLER_7_106
*327 FILLER_7_3
*328 FILLER_7_38
*329 FILLER_7_44
*330 FILLER_7_55
*331 FILLER_7_57
*332 FILLER_8_105
*333 FILLER_8_3
*334 FILLER_8_32
*335 FILLER_8_44
*336 FILLER_8_76
*337 FILLER_9_10
*338 FILLER_9_14
*339 FILLER_9_26
*340 FILLER_9_47
*341 FILLER_9_53
*342 FILLER_9_57
*343 FILLER_9_69
*344 FILLER_9_95
*345 PHY_EDGE_ROW_0_Left_18
*346 PHY_EDGE_ROW_0_Right_0
*347 PHY_EDGE_ROW_10_Left_28
*348 PHY_EDGE_ROW_10_Right_10
*349 PHY_EDGE_ROW_11_Left_29
*350 PHY_EDGE_ROW_11_Right_11
*351 PHY_EDGE_ROW_12_Left_30
*352 PHY_EDGE_ROW_12_Right_12
*353 PHY_EDGE_ROW_13_Left_31
*354 PHY_EDGE_ROW_13_Right_13
*355 PHY_EDGE_ROW_14_Left_32
*356 PHY_EDGE_ROW_14_Right_14
*357 PHY_EDGE_ROW_15_Left_33
*358 PHY_EDGE_ROW_15_Right_15
*359 PHY_EDGE_ROW_16_Left_34
*360 PHY_EDGE_ROW_16_Right_16
*361 PHY_EDGE_ROW_17_Left_35
*362 PHY_EDGE_ROW_17_Right_17
*363 PHY_EDGE_ROW_1_Left_19
*364 PHY_EDGE_ROW_1_Right_1
*365 PHY_EDGE_ROW_2_Left_20
*366 PHY_EDGE_ROW_2_Right_2
*367 PHY_EDGE_ROW_3_Left_21
*368 PHY_EDGE_ROW_3_Right_3
*369 PHY_EDGE_ROW_4_Left_22
*370 PHY_EDGE_ROW_4_Right_4
*371 PHY_EDGE_ROW_5_Left_23
*372 PHY_EDGE_ROW_5_Right_5
*373 PHY_EDGE_ROW_6_Left_24
*374 PHY_EDGE_ROW_6_Right_6
*375 PHY_EDGE_ROW_7_Left_25
*376 PHY_EDGE_ROW_7_Right_7
*377 PHY_EDGE_ROW_8_Left_26
*378 PHY_EDGE_ROW_8_Right_8
*379 PHY_EDGE_ROW_9_Left_27
*380 PHY_EDGE_ROW_9_Right_9
*381 TAP_TAPCELL_ROW_0_36
*382 TAP_TAPCELL_ROW_0_37
*383 TAP_TAPCELL_ROW_0_38
*384 TAP_TAPCELL_ROW_10_52
*385 TAP_TAPCELL_ROW_10_53
*386 TAP_TAPCELL_ROW_11_54
*387 TAP_TAPCELL_ROW_12_55
*388 TAP_TAPCELL_ROW_12_56
*389 TAP_TAPCELL_ROW_13_57
*390 TAP_TAPCELL_ROW_14_58
*391 TAP_TAPCELL_ROW_14_59
*392 TAP_TAPCELL_ROW_15_60
*393 TAP_TAPCELL_ROW_16_61
*394 TAP_TAPCELL_ROW_16_62
*395 TAP_TAPCELL_ROW_17_63
*396 TAP_TAPCELL_ROW_17_64
*397 TAP_TAPCELL_ROW_17_65
*398 TAP_TAPCELL_ROW_1_39
*399 TAP_TAPCELL_ROW_2_40
*400 TAP_TAPCELL_ROW_2_41
*401 TAP_TAPCELL_ROW_3_42
*402 TAP_TAPCELL_ROW_4_43
*403 TAP_TAPCELL_ROW_4_44
*404 TAP_TAPCELL_ROW_5_45
*405 TAP_TAPCELL_ROW_6_46
*406 TAP_TAPCELL_ROW_6_47
*407 TAP_TAPCELL_ROW_7_48
*408 TAP_TAPCELL_ROW_8_49
*409 TAP_TAPCELL_ROW_8_50
*410 TAP_TAPCELL_ROW_9_51
*411 _113_
*412 _114_
*413 _115_
*414 _116_
*415 _117_
*416 _118_
*417 _119_
*418 _120_
*419 _121_
*420 _122_
*421 _123_
*422 _124_
*423 _125_
*424 _126_
*425 _127_
*426 _128_
*427 _129_
*428 _130_
*429 _131_
*430 _132_
*431 _133_
*432 _134_
*433 _135_
*434 _136_
*435 _137_
*436 _138_
*437 _139_
*438 _140_
*439 _141_
*440 _142_
*441 _143_
*442 _144_
*443 _145_
*444 _146_
*445 _147_
*446 _148_
*447 _149_
*448 _150_
*449 _151_
*450 _152_
*451 _153_
*452 _154_
*453 _155_
*454 _156_
*455 _157_
*456 _158_
*457 _159_
*458 _160_
*459 _161_
*460 _162_
*461 _163_
*462 _164_
*463 _165_
*464 _166_
*465 _167_
*466 _168_
*467 _169_
*468 _170_
*469 _171_
*470 _172_
*471 _173_
*472 _174_
*473 _175_
*474 _176_
*475 _177_
*476 _178_
*477 _179_
*478 _180_
*479 _181_
*480 _182_
*481 _183_
*482 _184_
*483 _185_
*484 _186_
*485 _187_
*486 _188_
*487 _189_
*488 _190_
*489 _191_
*490 _192_
*491 _193_
*492 _194_
*493 _195_
*494 _196_
*495 _197_
*496 _198_
*497 _199_
*498 _200_
*499 _201_
*500 _202_
*501 _203_
*502 _204_
*503 _205_
*504 _206_
*505 _207_
*506 _208_
*507 _209_
*508 _210_
*509 _211_
*510 _212_
*511 _213_
*512 _214_
*513 _215_
*514 _216_
*515 _217_
*516 _218_
*517 _219_
*518 _220_
*519 _221_
*520 _222_
*521 _223_
*522 _224_
*523 _225_
*524 _226_
*525 _227_
*526 _228_
*527 _229_
*528 _230_
*529 _231_
*530 _232_
*531 _233_
*532 _234_
*533 _235_
*534 _236_
*535 _237_
*536 _238_
*537 _239_
*538 _240_
*539 _241_
*540 _242_
*541 clkbuf_0_clk
*542 clkbuf_1_0__f_clk
*543 clkbuf_1_1__f_clk
*544 clkload0
*545 clone1
*546 fanout19
*547 fanout20
*548 fanout21
*549 fanout22
*550 hold4
*551 hold5
*552 input1
*553 input10
*554 input11
*555 input12
*556 input13
*557 input14
*558 input15
*559 input16
*560 input17
*561 input2
*562 input3
*563 input4
*564 input5
*565 input6
*566 input7
*567 input8
*568 input9
*569 output18
*570 rebuffer2
*571 rebuffer3

*PORTS
clk I
out O
psc[0] I
psc[10] I
psc[11] I
psc[12] I
psc[13] I
psc[14] I
psc[15] I
psc[1] I
psc[2] I
psc[3] I
psc[4] I
psc[5] I
psc[6] I
psc[7] I
psc[8] I
psc[9] I
rst I

*D_NET *3 0.00465183
*CONN
*P clk I
*I *541:A I *D sky130_fd_sc_hd__clkbuf_16
*CAP
1 clk 0.00195397
2 *541:A 0.00195397
3 *541:A *427:B 0
4 *541:A *429:B1_N 1.7635e-05
5 *541:A *500:B 0.000174279
6 *541:A *511:A 0
7 *541:A *528:RESET_B 0
8 *541:A *536:D 0.00036004
9 *541:A *537:RESET_B 0
10 *541:A *545:A 0.000108151
11 *541:A *120:10 3.07831e-05
12 *541:A *148:14 5.30064e-05
13 *541:A *148:22 0
*RES
1 clk *541:A 17.8072 
*END

*D_NET *4 0.00101945
*CONN
*P out O
*I *569:X O *D sky130_fd_sc_hd__buf_2
*CAP
1 out 0.000331269
2 *569:X 0.000331269
3 out *540:D 8.37447e-05
4 out *136:12 0.000166346
5 out *136:16 0.000106824
*RES
1 *569:X out 7.71003 
*END

*D_NET *5 0.000786235
*CONN
*P psc[0] I
*I *552:A I *D sky130_fd_sc_hd__clkbuf_1
*CAP
1 psc[0] 0.000393118
2 *552:A 0.000393118
3 *552:A *567:A 0
*RES
1 psc[0] *552:A 10.35 
*END

*D_NET *6 0.00105083
*CONN
*P psc[10] I
*I *561:A I *D sky130_fd_sc_hd__clkbuf_1
*CAP
1 psc[10] 0.000468628
2 *561:A 0.000468628
3 *561:A *434:A_N 1.47347e-05
4 *561:A *438:A 4.82863e-05
5 *561:A *438:B 5.05521e-05
6 *561:A *562:A 0
*RES
1 psc[10] *561:A 12.225 
*END

*D_NET *7 0.00130449
*CONN
*P psc[11] I
*I *562:A I *D sky130_fd_sc_hd__clkbuf_1
*CAP
1 psc[11] 0.000501357
2 *562:A 0.000501357
3 *562:A *438:A 0.00012657
4 *562:A *438:B 0.00011964
5 *562:A *438:C 9.50342e-06
6 *562:A *439:B2 4.60584e-05
7 *562:A *558:A 0
8 *561:A *562:A 0
*RES
1 psc[11] *562:A 13.815 
*END

*D_NET *8 0.000940252
*CONN
*P psc[12] I
*I *563:A I *D sky130_fd_sc_hd__clkbuf_1
*CAP
1 psc[12] 0.000470126
2 *563:A 0.000470126
3 *563:A *564:A 0
4 *563:A *565:A 0
*RES
1 psc[12] *563:A 11.985 
*END

*D_NET *9 0.000959714
*CONN
*P psc[13] I
*I *564:A I *D sky130_fd_sc_hd__clkbuf_1
*CAP
1 psc[13] 0.000464838
2 *564:A 0.000464838
3 *564:A *159:10 3.00381e-05
4 *563:A *564:A 0
*RES
1 psc[13] *564:A 11.88 
*END

*D_NET *10 0.00115688
*CONN
*P psc[14] I
*I *565:A I *D sky130_fd_sc_hd__clkbuf_1
*CAP
1 psc[14] 0.000531727
2 *565:A 0.000531727
3 *565:A *412:A 5.53774e-05
4 *565:A *566:A 0
5 *565:A *106:10 2.39426e-05
6 *565:A *162:10 1.41095e-05
7 *563:A *565:A 0
*RES
1 psc[14] *565:A 13.02 
*END

*D_NET *11 0.000950729
*CONN
*P psc[15] I
*I *566:A I *D sky130_fd_sc_hd__clkbuf_1
*CAP
1 psc[15] 0.000475364
2 *566:A 0.000475364
3 *565:A *566:A 0
*RES
1 psc[15] *566:A 11.88 
*END

*D_NET *12 0.000786235
*CONN
*P psc[1] I
*I *567:A I *D sky130_fd_sc_hd__clkbuf_1
*CAP
1 psc[1] 0.000393118
2 *567:A 0.000393118
3 *567:A *568:A 0
4 *552:A *567:A 0
*RES
1 psc[1] *567:A 10.35 
*END

*D_NET *13 0.000907416
*CONN
*P psc[2] I
*I *568:A I *D sky130_fd_sc_hd__clkbuf_1
*CAP
1 psc[2] 0.000417252
2 *568:A 0.000417252
3 *568:A *422:A 7.2911e-05
4 *568:A *553:A 0
5 *567:A *568:A 0
*RES
1 psc[2] *568:A 11.04 
*END

*D_NET *14 0.000888412
*CONN
*P psc[3] I
*I *553:A I *D sky130_fd_sc_hd__clkbuf_1
*CAP
1 psc[3] 0.000442381
2 *553:A 0.000442381
3 *553:A *420:A 3.64998e-06
4 *568:A *553:A 0
*RES
1 psc[3] *553:A 11.25 
*END

*D_NET *15 0.00107422
*CONN
*P psc[4] I
*I *554:A I *D sky130_fd_sc_hd__clkbuf_1
*CAP
1 psc[4] 0.000531278
2 *554:A 0.000531278
3 *554:A *555:A 0
4 *554:A *140:8 1.16646e-05
*RES
1 psc[4] *554:A 11.835 
*END

*D_NET *16 0.00121539
*CONN
*P psc[5] I
*I *555:A I *D sky130_fd_sc_hd__clkbuf_1
*CAP
1 psc[5] 0.000550564
2 *555:A 0.000550564
3 *555:A *453:A2 3.70488e-05
4 *555:A *454:D 1.33293e-05
5 *555:A *455:B2 4.47209e-05
6 *555:A *556:A 0
7 *555:A *63:6 5.83121e-06
8 *555:A *142:8 1.33293e-05
9 *554:A *555:A 0
*RES
1 psc[5] *555:A 12.735 
*END

*D_NET *17 0.00109282
*CONN
*P psc[6] I
*I *556:A I *D sky130_fd_sc_hd__buf_1
*CAP
1 psc[6] 0.000487396
2 *556:A 0.000487396
3 *556:A *453:A1 5.53249e-06
4 *556:A *453:A2 4.99619e-05
5 *556:A *557:A 0
6 *556:A *141:12 4.90883e-05
7 *556:A *142:8 1.34503e-05
8 *555:A *556:A 0
*RES
1 psc[6] *556:A 11.835 
*END

*D_NET *18 0.00078945
*CONN
*P psc[7] I
*I *557:A I *D sky130_fd_sc_hd__clkbuf_1
*CAP
1 psc[7] 0.000394725
2 *557:A 0.000394725
3 *557:A *141:12 0
4 *556:A *557:A 0
*RES
1 psc[7] *557:A 10.35 
*END

*D_NET *19 0.000954275
*CONN
*P psc[8] I
*I *558:A I *D sky130_fd_sc_hd__clkbuf_1
*CAP
1 psc[8] 0.000464364
2 *558:A 0.000464364
3 *558:A *438:D 4.43871e-06
4 *558:A *559:A 0
5 *558:A *131:14 2.11084e-05
6 *562:A *558:A 0
*RES
1 psc[8] *558:A 11.88 
*END

*D_NET *20 0.000950729
*CONN
*P psc[9] I
*I *559:A I *D sky130_fd_sc_hd__clkbuf_1
*CAP
1 psc[9] 0.000475364
2 *559:A 0.000475364
3 *558:A *559:A 0
*RES
1 psc[9] *559:A 11.88 
*END

*D_NET *21 0.000722337
*CONN
*P rst I
*I *560:A I *D sky130_fd_sc_hd__buf_1
*CAP
1 rst 0.000361168
2 *560:A 0.000361168
3 *560:A *513:A 0
4 *560:A *146:10 0
*RES
1 rst *560:A 7.39677 
*END

*D_NET *22 0.000241671
*CONN
*I *524:D I *D sky130_fd_sc_hd__dfrtp_2
*I *463:X O *D sky130_fd_sc_hd__and2b_1
*CAP
1 *524:D 0.000105816
2 *463:X 0.000105816
3 *524:D *525:CLK 3.00381e-05
4 *524:D *136:20 0
5 *524:D *165:10 0
*RES
1 *463:X *524:D 8.775 
*END

*D_NET *23 0.000468207
*CONN
*I *534:D I *D sky130_fd_sc_hd__dfrtp_1
*I *494:X O *D sky130_fd_sc_hd__and2_1
*CAP
1 *534:D 0.00014207
2 *494:X 0.00014207
3 *534:D *494:B 6.55406e-05
4 *534:D *166:27 0.000118527
*RES
1 *494:X *534:D 10.065 
*END

*D_NET *24 0.000480484
*CONN
*I *535:D I *D sky130_fd_sc_hd__dfrtp_1
*I *497:X O *D sky130_fd_sc_hd__and3b_1
*CAP
1 *535:D 0.000148116
2 *497:X 0.000148116
3 *535:D *479:B 3.09233e-05
4 *535:D *497:C 3.03775e-05
5 *535:D *542:A 0
6 *535:D *75:18 1.22676e-05
7 *535:D *150:10 4.61595e-05
8 *535:D *150:12 6.45236e-05
9 *535:D *168:8 0
*RES
1 *497:X *535:D 9.975 
*END

*D_NET *25 0.000945842
*CONN
*I *536:D I *D sky130_fd_sc_hd__dfrtp_1
*I *500:X O *D sky130_fd_sc_hd__and3_1
*CAP
1 *536:D 0.000269015
2 *500:X 0.000269015
3 *536:D *506:A 4.77719e-05
4 *541:A *536:D 0.00036004
*RES
1 *500:X *536:D 12.09 
*END

*D_NET *26 0.000663822
*CONN
*I *537:D I *D sky130_fd_sc_hd__dfrtp_1
*I *503:X O *D sky130_fd_sc_hd__and2_1
*CAP
1 *537:D 0.000154337
2 *503:X 0.000154337
3 *537:D *523:A 4.82863e-05
4 *537:D *536:CLK 6.38806e-05
5 *537:D *136:75 2.49909e-05
6 *537:D *151:68 5.86926e-05
7 *537:D *153:10 1.83847e-05
8 *537:D *153:49 0.000140912
*RES
1 *503:X *537:D 10.77 
*END

*D_NET *27 0.000518065
*CONN
*I *538:D I *D sky130_fd_sc_hd__dfrtp_1
*I *506:X O *D sky130_fd_sc_hd__and3_1
*CAP
1 *538:D 0.000167006
2 *506:X 0.000167006
3 *538:D *507:A2 6.55328e-05
4 *538:D *507:B1_N 0.00011852
*RES
1 *506:X *538:D 10.41 
*END

*D_NET *28 0.000605849
*CONN
*I *539:D I *D sky130_fd_sc_hd__dfrtp_1
*I *507:Y O *D sky130_fd_sc_hd__a21boi_1
*CAP
1 *539:D 0.000277653
2 *507:Y 0.000277653
3 *539:D *507:B1_N 5.05437e-05
*RES
1 *507:Y *539:D 10.755 
*END

*D_NET *29 0.000274494
*CONN
*I *525:D I *D sky130_fd_sc_hd__dfrtp_2
*I *466:X O *D sky130_fd_sc_hd__and3_1
*CAP
1 *525:D 9.11141e-05
2 *466:X 9.11141e-05
3 *525:D *463:B 2.75145e-05
4 *525:D *153:49 0
5 *525:D *165:12 6.47516e-05
*RES
1 *466:X *525:D 9.03 
*END

*D_NET *30 0.000522028
*CONN
*I *526:D I *D sky130_fd_sc_hd__dfrtp_1
*I *469:X O *D sky130_fd_sc_hd__and3_1
*CAP
1 *526:D 0.000237492
2 *469:X 0.000237492
3 *526:D *469:B 0
4 *526:D *136:24 4.7043e-05
*RES
1 *469:X *526:D 10.575 
*END

*D_NET *31 0.00057245
*CONN
*I *527:D I *D sky130_fd_sc_hd__dfrtp_1
*I *472:X O *D sky130_fd_sc_hd__and3b_1
*CAP
1 *527:D 0.000145764
2 *472:X 0.000145764
3 *527:D *443:C1 0
4 *527:D *470:A3 4.66108e-05
5 *527:D *472:B 4.82863e-05
6 *527:D *528:CLK 7.00889e-06
7 *527:D *165:29 0
8 *527:D *172:62 0.000127373
9 *527:D *172:72 5.16418e-05
*RES
1 *472:X *527:D 10.245 
*END

*D_NET *32 0.000818158
*CONN
*I *528:D I *D sky130_fd_sc_hd__dfrtp_1
*I *475:X O *D sky130_fd_sc_hd__and3_1
*CAP
1 *528:D 0.000264445
2 *475:X 0.000264445
3 *528:D *463:B 6.61627e-05
4 *528:D *473:B 6.05336e-05
5 *528:D *475:B 4.99619e-05
6 *528:D *81:52 5.18694e-05
7 *528:D *148:28 6.07412e-05
*RES
1 *475:X *528:D 11.1 
*END

*D_NET *33 0.00075659
*CONN
*I *529:D I *D sky130_fd_sc_hd__dfrtp_1
*I *479:X O *D sky130_fd_sc_hd__and3b_1
*CAP
1 *529:D 0.000340112
2 *479:X 0.000340112
3 *529:D *461:A2 7.23602e-05
4 *529:D *529:CLK 4.00541e-06
*RES
1 *479:X *529:D 11.295 
*END

*D_NET *34 0.000548191
*CONN
*I *530:D I *D sky130_fd_sc_hd__dfrtp_1
*I *482:X O *D sky130_fd_sc_hd__and3_1
*CAP
1 *530:D 0.000205442
2 *482:X 0.000205442
3 *530:D *486:B 5.06731e-05
4 *530:D *530:CLK 0
5 *530:D *531:RESET_B 0
6 *530:D *177:6 2.11084e-05
7 *530:D *178:21 6.5525e-05
*RES
1 *482:X *530:D 11.07 
*END

*D_NET *35 0.000341465
*CONN
*I *531:D I *D sky130_fd_sc_hd__dfrtp_1
*I *486:X O *D sky130_fd_sc_hd__and3b_1
*CAP
1 *531:D 6.02961e-05
2 *486:X 6.02961e-05
3 *531:D *484:A 5.84919e-05
4 *531:D *531:CLK 4.82919e-05
5 *531:D *548:A 4.43682e-05
6 *531:D *178:6 6.97202e-05
*RES
1 *486:X *531:D 5.045 
*END

*D_NET *36 0.000482065
*CONN
*I *532:D I *D sky130_fd_sc_hd__dfrtp_1
*I *489:X O *D sky130_fd_sc_hd__and3b_1
*CAP
1 *532:D 0.000120534
2 *489:X 0.000120534
3 *532:D *487:B 2.16833e-05
4 *532:D *489:C 8.49205e-05
5 *532:D *137:18 3.89528e-05
6 *532:D *150:74 9.54399e-05
*RES
1 *489:X *532:D 9.465 
*END

*D_NET *37 0.00033102
*CONN
*I *533:D I *D sky130_fd_sc_hd__dfrtp_1
*I *492:X O *D sky130_fd_sc_hd__and3b_1
*CAP
1 *533:D 5.00958e-05
2 *492:X 5.00958e-05
3 *533:D *490:B 9.50342e-06
4 *533:D *491:A 4.39001e-05
5 *533:D *492:C 7.06865e-05
6 *533:D *493:B 3.09233e-05
7 *533:D *94:14 4.82919e-05
8 *533:D *180:31 2.75229e-05
*RES
1 *492:X *533:D 8.775 
*END

*D_NET *38 0.000469065
*CONN
*I *524:RESET_B I *D sky130_fd_sc_hd__dfrtp_2
*I *424:Y O *D sky130_fd_sc_hd__inv_2
*CAP
1 *524:RESET_B 0.000132146
2 *424:Y 0.000132146
3 *524:RESET_B *424:A 8.65961e-05
4 *524:RESET_B *165:10 0.000118178
*RES
1 *424:Y *524:RESET_B 4.0675 
*END

*D_NET *39 0.000355922
*CONN
*I *525:RESET_B I *D sky130_fd_sc_hd__dfrtp_2
*I *508:Y O *D sky130_fd_sc_hd__inv_2
*CAP
1 *525:RESET_B 0.000127124
2 *508:Y 0.000127124
3 *525:RESET_B *475:C 0
4 *525:RESET_B *508:A 2.11084e-05
5 *525:RESET_B *151:36 8.05654e-05
*RES
1 *508:Y *525:RESET_B 7.94 
*END

*D_NET *40 0.00030205
*CONN
*I *526:RESET_B I *D sky130_fd_sc_hd__dfrtp_1
*I *509:Y O *D sky130_fd_sc_hd__inv_2
*CAP
1 *526:RESET_B 9.16998e-05
2 *509:Y 9.16998e-05
3 *526:RESET_B *136:31 0.000118651
*RES
1 *509:Y *526:RESET_B 3.3775 
*END

*D_NET *41 0.000361932
*CONN
*I *527:RESET_B I *D sky130_fd_sc_hd__dfrtp_1
*I *510:Y O *D sky130_fd_sc_hd__inv_2
*CAP
1 *527:RESET_B 5.71139e-05
2 *510:Y 5.71139e-05
3 *527:RESET_B *510:A 0.000118651
4 *527:RESET_B *174:6 4.82919e-05
5 *527:RESET_B *174:10 8.07616e-05
*RES
1 *510:Y *527:RESET_B 3.3775 
*END

*D_NET *42 0.000801453
*CONN
*I *528:RESET_B I *D sky130_fd_sc_hd__dfrtp_1
*I *511:Y O *D sky130_fd_sc_hd__inv_2
*CAP
1 *528:RESET_B 0.00033736
2 *511:Y 0.00033736
3 *528:RESET_B *472:B 0
4 *528:RESET_B *473:A 0
5 *528:RESET_B *148:22 0.000109338
6 *528:RESET_B *148:28 1.7396e-05
7 *541:A *528:RESET_B 0
*RES
1 *511:Y *528:RESET_B 11.57 
*END

*D_NET *43 0.000568504
*CONN
*I *529:RESET_B I *D sky130_fd_sc_hd__dfrtp_1
*I *512:Y O *D sky130_fd_sc_hd__inv_2
*CAP
1 *529:RESET_B 0.000204907
2 *512:Y 0.000204907
3 *529:RESET_B *479:A_N 3.39064e-05
4 *529:RESET_B *479:C 9.47454e-05
5 *529:RESET_B *518:A 3.00381e-05
*RES
1 *512:Y *529:RESET_B 8.555 
*END

*D_NET *44 0.000325762
*CONN
*I *530:RESET_B I *D sky130_fd_sc_hd__dfrtp_1
*I *513:Y O *D sky130_fd_sc_hd__inv_2
*CAP
1 *530:RESET_B 0.000162881
2 *513:Y 0.000162881
3 *530:RESET_B *446:A_N 0
4 *530:RESET_B *513:A 0
5 *530:RESET_B *178:21 0
*RES
1 *513:Y *530:RESET_B 8.03 
*END

*D_NET *45 0.000156061
*CONN
*I *531:RESET_B I *D sky130_fd_sc_hd__dfrtp_1
*I *514:Y O *D sky130_fd_sc_hd__inv_2
*CAP
1 *531:RESET_B 6.00306e-05
2 *514:Y 6.00306e-05
3 *531:RESET_B *513:A 3.59997e-05
4 *530:D *531:RESET_B 0
*RES
1 *514:Y *531:RESET_B 6.725 
*END

*D_NET *46 0.000288974
*CONN
*I *532:RESET_B I *D sky130_fd_sc_hd__dfrtp_1
*I *515:Y O *D sky130_fd_sc_hd__inv_2
*CAP
1 *532:RESET_B 9.44432e-05
2 *515:Y 9.44432e-05
3 *532:RESET_B *515:A 7.00889e-06
4 *532:RESET_B *150:74 0
5 *532:RESET_B *152:43 9.30787e-05
*RES
1 *515:Y *532:RESET_B 7.175 
*END

*D_NET *47 0.000198718
*CONN
*I *533:RESET_B I *D sky130_fd_sc_hd__dfrtp_1
*I *516:Y O *D sky130_fd_sc_hd__inv_2
*CAP
1 *533:RESET_B 5.19862e-05
2 *516:Y 5.19862e-05
3 *533:RESET_B *517:A 9.47454e-05
*RES
1 *516:Y *533:RESET_B 6.725 
*END

*D_NET *48 0.000241386
*CONN
*I *534:RESET_B I *D sky130_fd_sc_hd__dfrtp_1
*I *517:Y O *D sky130_fd_sc_hd__inv_2
*CAP
1 *534:RESET_B 0.000120693
2 *517:Y 0.000120693
3 *534:RESET_B *494:A 0
*RES
1 *517:Y *534:RESET_B 7.43 
*END

*D_NET *49 0.000385784
*CONN
*I *535:RESET_B I *D sky130_fd_sc_hd__dfrtp_1
*I *518:Y O *D sky130_fd_sc_hd__inv_2
*CAP
1 *535:RESET_B 8.7187e-05
2 *518:Y 8.7187e-05
3 *535:RESET_B *416:A 3.00381e-05
4 *535:RESET_B *497:C 8.97486e-05
5 *535:RESET_B *110:8 9.16237e-05
*RES
1 *518:Y *535:RESET_B 7.94 
*END

*D_NET *50 0.000363246
*CONN
*I *536:RESET_B I *D sky130_fd_sc_hd__dfrtp_1
*I *519:Y O *D sky130_fd_sc_hd__inv_2
*CAP
1 *536:RESET_B 7.97398e-05
2 *519:Y 7.97398e-05
3 *536:RESET_B *497:A_N 5.2089e-05
4 *536:RESET_B *498:A 4.82919e-05
5 *536:RESET_B *502:A1 7.45224e-05
6 *536:RESET_B *519:A 8.53113e-06
7 *536:RESET_B *542:A 2.03321e-05
*RES
1 *519:Y *536:RESET_B 7.685 
*END

*D_NET *51 0.000705301
*CONN
*I *537:RESET_B I *D sky130_fd_sc_hd__dfrtp_1
*I *520:Y O *D sky130_fd_sc_hd__inv_2
*CAP
1 *537:RESET_B 0.000251427
2 *520:Y 0.000251427
3 *537:RESET_B *502:B1 0.000158297
4 *537:RESET_B *151:68 0
5 *537:RESET_B *151:84 4.41506e-05
6 *541:A *537:RESET_B 0
*RES
1 *520:Y *537:RESET_B 9.815 
*END

*D_NET *52 0.00114063
*CONN
*I *538:RESET_B I *D sky130_fd_sc_hd__dfrtp_1
*I *521:Y O *D sky130_fd_sc_hd__inv_2
*CAP
1 *538:RESET_B 0.000308343
2 *521:Y 0.000308343
3 *538:RESET_B *427:A_N 8.88715e-05
4 *538:RESET_B *505:A 0.000116158
5 *538:RESET_B *151:76 0.000161467
6 *538:RESET_B *170:6 4.66108e-05
7 *538:RESET_B *170:31 0.000110832
*RES
1 *521:Y *538:RESET_B 11.2925 
*END

*D_NET *53 0.000655495
*CONN
*I *539:RESET_B I *D sky130_fd_sc_hd__dfrtp_1
*I *522:Y O *D sky130_fd_sc_hd__inv_2
*CAP
1 *539:RESET_B 0.000230573
2 *522:Y 0.000230573
3 *539:RESET_B *427:B 0
4 *539:RESET_B *522:A 0.000164686
5 *539:RESET_B *170:31 1.22762e-05
6 *539:RESET_B *171:12 1.7386e-05
*RES
1 *522:Y *539:RESET_B 9.6125 
*END

*D_NET *54 0.000528508
*CONN
*I *540:RESET_B I *D sky130_fd_sc_hd__dfrtp_1
*I *523:Y O *D sky130_fd_sc_hd__inv_2
*CAP
1 *540:RESET_B 0.000134353
2 *523:Y 0.000134353
3 *540:RESET_B *550:A 5.20968e-05
4 *540:RESET_B *153:16 2.05056e-05
5 *540:RESET_B *153:20 9.17602e-05
6 *540:RESET_B *153:49 9.54399e-05
*RES
1 *523:Y *540:RESET_B 8.5025 
*END

*D_NET *55 0.000579823
*CONN
*I *540:D I *D sky130_fd_sc_hd__dfrtp_1
*I *462:Y O *D sky130_fd_sc_hd__xnor2_1
*CAP
1 *540:D 0.00019163
2 *462:Y 0.00019163
3 *540:D *136:16 1.27434e-05
4 *540:D *136:18 6.50568e-05
5 *540:D *136:75 3.50193e-05
6 out *540:D 8.37447e-05
*RES
1 *462:Y *540:D 10.59 
*END

*D_NET *56 0.000345184
*CONN
*I *445:B1 I *D sky130_fd_sc_hd__a21o_1
*I *442:X O *D sky130_fd_sc_hd__a22o_1
*CAP
1 *445:B1 0.000124293
2 *442:X 0.000124293
3 *445:B1 *445:A1 4.76682e-05
4 *445:B1 *445:A2 4.89295e-05
*RES
1 *442:X *445:B1 5.405 
*END

*D_NET *57 0.00107664
*CONN
*I *445:A1 I *D sky130_fd_sc_hd__a21o_1
*I *443:X O *D sky130_fd_sc_hd__a211o_1
*CAP
1 *445:A1 0.000367728
2 *443:X 0.000367728
3 *445:A1 *442:A1 5.30728e-05
4 *445:A1 *447:B1 6.69608e-06
5 *445:A1 *116:6 0.000233742
6 *445:B1 *445:A1 4.76682e-05
*RES
1 *443:X *445:A1 12.075 
*END

*D_NET *58 0.000578139
*CONN
*I *445:A2 I *D sky130_fd_sc_hd__a21o_1
*I *444:X O *D sky130_fd_sc_hd__o22a_1
*CAP
1 *445:A2 0.000133037
2 *444:X 0.000133037
3 *445:A2 *442:A2 4.77719e-05
4 *445:A2 *442:B1 2.75229e-05
5 *445:A2 *442:B2 4.89295e-05
6 *445:A2 *444:A1 2.01504e-05
7 *445:A2 *172:72 0.000118761
8 *445:B1 *445:A2 4.89295e-05
*RES
1 *444:X *445:A2 6.53 
*END

*D_NET *59 0.0010534
*CONN
*I *457:A1 I *D sky130_fd_sc_hd__a21oi_1
*I *445:X O *D sky130_fd_sc_hd__a21o_1
*CAP
1 *457:A1 0.000287671
2 *445:X 0.000287671
3 *457:A1 *447:B2 0
4 *457:A1 *447:C1 0.000439305
5 *457:A1 *457:B1 0
6 *457:A1 *472:B 2.7881e-05
7 *457:A1 *174:18 1.08758e-05
*RES
1 *445:X *457:A1 13.185 
*END

*D_NET *60 0.00247076
*CONN
*I *456:B1_N I *D sky130_fd_sc_hd__a21boi_1
*I *447:C1 I *D sky130_fd_sc_hd__o221a_1
*I *446:Y O *D sky130_fd_sc_hd__nand2b_1
*CAP
1 *456:B1_N 0
2 *447:C1 0.000343364
3 *446:Y 0.000323845
4 *60:14 0.000667209
5 *447:C1 *447:B1 5.53249e-06
6 *447:C1 *447:B2 5.72004e-05
7 *447:C1 *457:B1 3.23663e-05
8 *447:C1 *461:A2 8.8266e-05
9 *447:C1 *175:23 0
10 *60:14 *451:A1 3.00381e-05
11 *60:14 *451:A2 8.8266e-05
12 *60:14 *451:B1 7.10578e-05
13 *60:14 *456:A1 6.36578e-05
14 *60:14 *456:A2 0.000100449
15 *60:14 *457:B1 4.92062e-05
16 *60:14 *461:A2 6.27029e-05
17 *60:14 *65:6 4.82919e-05
18 *60:14 *176:38 0
19 *457:A1 *447:C1 0.000439305
*RES
1 *446:Y *60:14 12.275 
2 *60:14 *447:C1 12.785 
3 *60:14 *456:B1_N 1.6 
*END

*D_NET *61 0.000647716
*CONN
*I *454:A I *D sky130_fd_sc_hd__and4_1
*I *447:X O *D sky130_fd_sc_hd__o221a_1
*CAP
1 *454:A 0.000218065
2 *447:X 0.000218065
3 *454:A *447:A1 4.82863e-05
4 *454:A *454:C 0.0001249
5 *454:A *457:A2 3.83995e-05
*RES
1 *447:X *454:A 6.755 
*END

*D_NET *62 0.000924919
*CONN
*I *455:B1 I *D sky130_fd_sc_hd__a221o_1
*I *450:A I *D sky130_fd_sc_hd__and2_1
*I *448:Y O *D sky130_fd_sc_hd__nand2b_1
*CAP
1 *455:B1 0.000118725
2 *450:A 6.15186e-05
3 *448:Y 0
4 *62:6 0.000180243
5 *450:A *449:B 0
6 *450:A *454:D 9.71067e-05
7 *450:A *455:B2 0
8 *455:B1 *448:A_N 1.17309e-05
9 *455:B1 *448:B 0.000130249
10 *455:B1 *449:B 0
11 *455:B1 *452:A_N 0.000150653
12 *455:B1 *454:D 9.77943e-05
13 *455:B1 *455:B2 1.12643e-05
14 *455:B1 *455:C1 3.81111e-05
15 *455:B1 *66:8 2.75229e-05
*RES
1 *448:Y *62:6 3.6 
2 *62:6 *450:A 4.98 
3 *62:6 *455:B1 6.9 
*END

*D_NET *63 0.000856404
*CONN
*I *455:B2 I *D sky130_fd_sc_hd__a221o_1
*I *450:B I *D sky130_fd_sc_hd__and2_1
*I *449:Y O *D sky130_fd_sc_hd__nand2b_1
*CAP
1 *455:B2 9.78416e-05
2 *450:B 0
3 *449:Y 8.7928e-05
4 *63:6 0.00018577
5 *455:B2 *449:B 0
6 *455:B2 *453:B1 0.000179015
7 *455:B2 *454:B 0.000136884
8 *455:B2 *454:D 5.86339e-05
9 *455:B2 *455:C1 1.12643e-05
10 *455:B2 *142:19 7.21296e-06
11 *63:6 *454:D 3.00381e-05
12 *450:A *455:B2 0
13 *455:B1 *455:B2 1.12643e-05
14 *555:A *455:B2 4.47209e-05
15 *555:A *63:6 5.83121e-06
*RES
1 *449:Y *63:6 3.085 
2 *63:6 *450:B 1.6 
3 *63:6 *455:B2 8.90375 
*END

*D_NET *64 0.000713465
*CONN
*I *454:B I *D sky130_fd_sc_hd__and4_1
*I *450:X O *D sky130_fd_sc_hd__and2_1
*CAP
1 *454:B 0.000179923
2 *450:X 0.000179923
3 *454:B *451:B1 0
4 *454:B *454:D 0.000144376
5 *454:B *176:38 7.23602e-05
6 *455:B2 *454:B 0.000136884
*RES
1 *450:X *454:B 10.56 
*END

*D_NET *65 0.000840302
*CONN
*I *456:A1 I *D sky130_fd_sc_hd__a21boi_1
*I *454:C I *D sky130_fd_sc_hd__and4_1
*I *451:X O *D sky130_fd_sc_hd__o22a_1
*CAP
1 *456:A1 6.02786e-05
2 *454:C 9.57269e-05
3 *451:X 9.64947e-05
4 *65:6 0.0002525
5 *456:A1 *456:A2 0
6 *456:A1 *461:A2 7.47284e-05
7 *456:A1 *176:38 2.37234e-05
8 *454:A *454:C 0.0001249
9 *60:14 *456:A1 6.36578e-05
10 *60:14 *65:6 4.82919e-05
*RES
1 *451:X *65:6 2.74 
2 *65:6 *454:C 3.61 
3 *65:6 *456:A1 7.235 
*END

*D_NET *66 0.00108029
*CONN
*I *453:B1 I *D sky130_fd_sc_hd__a21oi_1
*I *455:C1 I *D sky130_fd_sc_hd__a221o_1
*I *452:X O *D sky130_fd_sc_hd__and2b_1
*CAP
1 *453:B1 6.1921e-05
2 *455:C1 4.66297e-05
3 *452:X 7.32315e-05
4 *66:8 0.000181782
5 *453:B1 *453:A1 4.31921e-05
6 *453:B1 *142:19 5.7344e-05
7 *455:C1 *448:A_N 7.68396e-05
8 *66:8 *448:A_N 0.000130453
9 *66:8 *452:A_N 4.1829e-05
10 *66:8 *452:B 5.4155e-06
11 *66:8 *455:A2 0.000105743
12 *455:B1 *455:C1 3.81111e-05
13 *455:B1 *66:8 2.75229e-05
14 *455:B2 *453:B1 0.000179015
15 *455:B2 *455:C1 1.12643e-05
*RES
1 *452:X *66:8 4.135 
2 *66:8 *455:C1 2.755 
3 *66:8 *453:B1 7.745 
*END

*D_NET *67 0.000877371
*CONN
*I *454:D I *D sky130_fd_sc_hd__and4_1
*I *453:Y O *D sky130_fd_sc_hd__a21oi_1
*CAP
1 *454:D 0.000181866
2 *453:Y 0.000181866
3 *454:D *449:B 0
4 *454:D *176:38 7.23602e-05
5 *450:A *454:D 9.71067e-05
6 *454:B *454:D 0.000144376
7 *455:B1 *454:D 9.77943e-05
8 *455:B2 *454:D 5.86339e-05
9 *555:A *454:D 1.33293e-05
10 *63:6 *454:D 3.00381e-05
*RES
1 *453:Y *454:D 11.85 
*END

*D_NET *68 0.000535533
*CONN
*I *457:A2 I *D sky130_fd_sc_hd__a21oi_1
*I *454:X O *D sky130_fd_sc_hd__and4_1
*CAP
1 *457:A2 0.000177466
2 *454:X 0.000177466
3 *457:A2 *447:A1 3.64998e-06
4 *457:A2 *175:23 0.000138551
5 *457:A2 *176:38 0
6 *454:A *457:A2 3.83995e-05
*RES
1 *454:X *457:A2 9.975 
*END

*D_NET *69 0.00084992
*CONN
*I *456:A2 I *D sky130_fd_sc_hd__a21boi_1
*I *455:X O *D sky130_fd_sc_hd__a221o_1
*CAP
1 *456:A2 0.00022764
2 *455:X 0.00022764
3 *456:A2 *451:A2 0
4 *456:A2 *451:B1 4.49498e-05
5 *456:A2 *485:A 0
6 *456:A2 *112:10 0.000130721
7 *456:A2 *112:12 0.00011852
8 *456:A2 *176:38 0
9 *456:A1 *456:A2 0
10 *60:14 *456:A2 0.000100449
*RES
1 *455:X *456:A2 12.36 
*END

*D_NET *70 0.000292308
*CONN
*I *457:B1 I *D sky130_fd_sc_hd__a21oi_1
*I *456:Y O *D sky130_fd_sc_hd__a21boi_1
*CAP
1 *457:B1 0.000105368
2 *456:Y 0.000105368