*SPEF "ieee 1481-1999"
*DESIGN "freq_psc"
*DATE "06:28:38 Saturday October 26, 2024"
*VENDOR "The OpenROAD Project"
*PROGRAM "OpenROAD"
*VERSION "edf00dff99f6c40d67a30c0e22a8191c5d2ed9d6"
*DESIGN_FLOW "NAME_SCOPE LOCAL" "PIN_CAP NONE"
*DIVIDER /
*DELIMITER :
*BUS_DELIMITER []
*T_UNIT 1 NS
*C_UNIT 1 PF
*R_UNIT 1 OHM
*L_UNIT 1 HENRY

*NAME_MAP
*3 clk
*4 out
*5 psc[0]
*6 psc[10]
*7 psc[11]
*8 psc[12]
*9 psc[13]
*10 psc[14]
*11 psc[15]
*12 psc[1]
*13 psc[2]
*14 psc[3]
*15 psc[4]
*16 psc[5]
*17 psc[6]
*18 psc[7]
*19 psc[8]
*20 psc[9]
*21 rst
*22 _000_
*23 _001_
*24 _002_
*25 _003_
*26 _004_
*27 _005_
*28 _006_
*29 _007_
*30 _008_
*31 _009_
*32 _010_
*33 _011_
*34 _012_
*35 _013_
*36 _014_
*37 _015_
*38 _016_
*39 _017_
*40 _018_
*41 _019_
*42 _020_
*43 _021_
*44 _022_
*45 _023_
*46 _024_
*47 _025_
*48 _026_
*49 _027_
*50 _028_
*51 _029_
*52 _030_
*53 _031_
*54 _032_
*55 _033_
*56 _034_
*57 _035_
*58 _036_
*59 _037_
*60 _038_
*61 _039_
*62 _040_
*63 _041_
*64 _042_
*65 _043_
*66 _044_
*67 _045_
*68 _046_
*69 _047_
*70 _048_
*71 _049_
*72 _050_
*73 _051_
*74 _052_
*75 _053_
*76 _054_
*77 _055_
*78 _056_
*79 _057_
*80 _058_
*81 _059_
*82 _060_
*83 _061_
*84 _062_
*85 _063_
*86 _064_
*87 _065_
*88 _066_
*89 _067_
*90 _068_
*91 _069_
*92 _070_
*93 _071_
*94 _072_
*95 _073_
*96 _074_
*97 _075_
*98 _076_
*99 _077_
*100 _078_
*101 _079_
*102 _080_
*103 _081_
*104 _082_
*105 _083_
*106 _084_
*107 _085_
*108 _086_
*109 _087_
*110 _088_
*111 _089_
*112 _090_
*113 _091_
*114 _092_
*115 _093_
*116 _094_
*117 _095_
*118 _096_
*119 _097_
*120 _098_
*121 _099_
*122 _100_
*123 _101_
*124 _102_
*125 _103_
*126 _104_
*127 _105_
*128 _106_
*129 _107_
*130 _108_
*131 _109_
*132 _110_
*133 _111_
*134 _112_
*135 clknet_0_clk
*136 clknet_1_0__leaf_clk
*137 clknet_1_1__leaf_clk
*138 net1
*139 net10
*140 net11
*141 net12
*142 net13
*143 net14
*144 net15
*145 net16
*146 net17
*147 net18
*148 net19
*149 net2
*150 net20
*151 net21
*152 net22
*153 net23
*154 net24
*155 net25
*156 net26
*157 net27
*158 net3
*159 net4
*160 net5
*161 net6
*162 net7
*163 net8
*164 net9
*165 psc_cnt\[0\]
*166 psc_cnt\[10\]
*167 psc_cnt\[11\]
*168 psc_cnt\[12\]
*169 psc_cnt\[13\]
*170 psc_cnt\[14\]
*171 psc_cnt\[15\]
*172 psc_cnt\[1\]
*173 psc_cnt\[2\]
*174 psc_cnt\[3\]
*175 psc_cnt\[4\]
*176 psc_cnt\[5\]
*177 psc_cnt\[6\]
*178 psc_cnt\[7\]
*179 psc_cnt\[8\]
*180 psc_cnt\[9\]
*181 FILLER_0_105
*182 FILLER_0_15
*183 FILLER_0_23
*184 FILLER_0_27
*185 FILLER_0_29
*186 FILLER_0_3
*187 FILLER_0_34
*188 FILLER_0_41
*189 FILLER_0_48
*190 FILLER_0_52
*191 FILLER_0_62
*192 FILLER_0_78
*193 FILLER_0_83
*194 FILLER_0_85
*195 FILLER_0_97
*196 FILLER_10_105
*197 FILLER_10_69
*198 FILLER_10_76
*199 FILLER_10_85
*200 FILLER_10_97
*201 FILLER_11_102
*202 FILLER_11_106
*203 FILLER_11_60
*204 FILLER_11_7
*205 FILLER_11_95
*206 FILLER_12_106
*207 FILLER_12_15
*208 FILLER_12_23
*209 FILLER_12_27
*210 FILLER_12_29
*211 FILLER_12_3
*212 FILLER_12_38
*213 FILLER_12_60
*214 FILLER_12_82
*215 FILLER_12_85
*216 FILLER_13_102
*217 FILLER_13_106
*218 FILLER_13_3
*219 FILLER_13_30
*220 FILLER_13_38
*221 FILLER_13_50
*222 FILLER_13_57
*223 FILLER_13_69
*224 FILLER_13_73
*225 FILLER_13_81
*226 FILLER_13_89
*227 FILLER_13_9
*228 FILLER_13_97
*229 FILLER_14_29
*230 FILLER_14_3
*231 FILLER_14_37
*232 FILLER_14_62
*233 FILLER_14_7
*234 FILLER_14_78
*235 FILLER_14_85
*236 FILLER_15_21
*237 FILLER_15_3
*238 FILLER_15_48
*239 FILLER_15_55
*240 FILLER_15_99
*241 FILLER_16_106
*242 FILLER_16_15
*243 FILLER_16_27
*244 FILLER_16_3
*245 FILLER_16_37
*246 FILLER_16_59
*247 FILLER_16_63
*248 FILLER_16_70
*249 FILLER_16_82
*250 FILLER_16_98
*251 FILLER_17_103
*252 FILLER_17_15
*253 FILLER_17_27
*254 FILLER_17_29
*255 FILLER_17_3
*256 FILLER_17_34
*257 FILLER_17_42
*258 FILLER_17_48
*259 FILLER_17_55
*260 FILLER_17_57
*261 FILLER_17_65
*262 FILLER_17_69
*263 FILLER_17_76
*264 FILLER_17_83
*265 FILLER_17_91
*266 FILLER_1_104
*267 FILLER_1_15
*268 FILLER_1_23
*269 FILLER_1_3
*270 FILLER_1_36
*271 FILLER_1_43
*272 FILLER_1_47
*273 FILLER_1_55
*274 FILLER_1_60
*275 FILLER_1_80
*276 FILLER_1_92
*277 FILLER_2_105
*278 FILLER_2_15
*279 FILLER_2_27
*280 FILLER_2_3
*281 FILLER_2_49
*282 FILLER_2_59
*283 FILLER_2_69
*284 FILLER_2_83
*285 FILLER_2_85
*286 FILLER_2_97
*287 FILLER_3_100
*288 FILLER_3_11
*289 FILLER_3_20
*290 FILLER_3_3
*291 FILLER_3_32
*292 FILLER_3_48
*293 FILLER_3_57
*294 FILLER_3_63
*295 FILLER_3_70
*296 FILLER_3_79
*297 FILLER_3_88
*298 FILLER_3_96
*299 FILLER_4_105
*300 FILLER_4_27
*301 FILLER_4_29
*302 FILLER_4_3
*303 FILLER_4_58
*304 FILLER_4_70
*305 FILLER_4_76
*306 FILLER_4_82
*307 FILLER_5_20
*308 FILLER_5_3
*309 FILLER_5_32
*310 FILLER_5_41
*311 FILLER_5_45
*312 FILLER_5_52
*313 FILLER_5_57
*314 FILLER_5_69
*315 FILLER_6_105
*316 FILLER_6_11
*317 FILLER_6_26
*318 FILLER_6_3
*319 FILLER_6_32
*320 FILLER_6_36
*321 FILLER_6_60
*322 FILLER_6_77
*323 FILLER_6_83
*324 FILLER_6_90
*325 FILLER_7_100
*326 FILLER_7_106
*327 FILLER_7_3
*328 FILLER_7_38
*329 FILLER_7_44
*330 FILLER_7_55
*331 FILLER_7_57
*332 FILLER_8_105
*333 FILLER_8_3
*334 FILLER_8_32
*335 FILLER_8_44
*336 FILLER_8_76
*337 FILLER_9_10
*338 FILLER_9_14
*339 FILLER_9_26
*340 FILLER_9_47
*341 FILLER_9_53
*342 FILLER_9_57
*343 FILLER_9_69
*344 FILLER_9_95
*345 PHY_EDGE_ROW_0_Left_18
*346 PHY_EDGE_ROW_0_Right_0
*347 PHY_EDGE_ROW_10_Left_28
*348 PHY_EDGE_ROW_10_Right_10
*349 PHY_EDGE_ROW_11_Left_29
*350 PHY_EDGE_ROW_11_Right_11
*351 PHY_EDGE_ROW_12_Left_30
*352 PHY_EDGE_ROW_12_Right_12
*353 PHY_EDGE_ROW_13_Left_31
*354 PHY_EDGE_ROW_13_Right_13
*355 PHY_EDGE_ROW_14_Left_32
*356 PHY_EDGE_ROW_14_Right_14
*357 PHY_EDGE_ROW_15_Left_33
*358 PHY_EDGE_ROW_15_Right_15
*359 PHY_EDGE_ROW_16_Left_34
*360 PHY_EDGE_ROW_16_Right_16
*361 PHY_EDGE_ROW_17_Left_35
*362 PHY_EDGE_ROW_17_Right_17
*363 PHY_EDGE_ROW_1_Left_19
*364 PHY_EDGE_ROW_1_Right_1
*365 PHY_EDGE_ROW_2_Left_20
*366 PHY_EDGE_ROW_2_Right_2
*367 PHY_EDGE_ROW_3_Left_21
*368 PHY_EDGE_ROW_3_Right_3
*369 PHY_EDGE_ROW_4_Left_22
*370 PHY_EDGE_ROW_4_Right_4
*371 PHY_EDGE_ROW_5_Left_23
*372 PHY_EDGE_ROW_5_Right_5
*373 PHY_EDGE_ROW_6_Left_24
*374 PHY_EDGE_ROW_6_Right_6
*375 PHY_EDGE_ROW_7_Left_25
*376 PHY_EDGE_ROW_7_Right_7
*377 PHY_EDGE_ROW_8_Left_26
*378 PHY_EDGE_ROW_8_Right_8
*379 PHY_EDGE_ROW_9_Left_27
*380 PHY_EDGE_ROW_9_Right_9
*381 TAP_TAPCELL_ROW_0_36
*382 TAP_TAPCELL_ROW_0_37
*383 TAP_TAPCELL_ROW_0_38
*384 TAP_TAPCELL_ROW_10_52
*385 TAP_TAPCELL_ROW_10_53
*386 TAP_TAPCELL_ROW_11_54
*387 TAP_TAPCELL_ROW_12_55
*388 TAP_TAPCELL_ROW_12_56
*389 TAP_TAPCELL_ROW_13_57
*390 TAP_TAPCELL_ROW_14_58
*391 TAP_TAPCELL_ROW_14_59
*392 TAP_TAPCELL_ROW_15_60
*393 TAP_TAPCELL_ROW_16_61
*394 TAP_TAPCELL_ROW_16_62
*395 TAP_TAPCELL_ROW_17_63
*396 TAP_TAPCELL_ROW_17_64
*397 TAP_TAPCELL_ROW_17_65
*398 TAP_TAPCELL_ROW_1_39
*399 TAP_TAPCELL_ROW_2_40
*400 TAP_TAPCELL_ROW_2_41
*401 TAP_TAPCELL_ROW_3_42
*402 TAP_TAPCELL_ROW_4_43
*403 TAP_TAPCELL_ROW_4_44
*404 TAP_TAPCELL_ROW_5_45
*405 TAP_TAPCELL_ROW_6_46
*406 TAP_TAPCELL_ROW_6_47
*407 TAP_TAPCELL_ROW_7_48
*408 TAP_TAPCELL_ROW_8_49
*409 TAP_TAPCELL_ROW_8_50
*410 TAP_TAPCELL_ROW_9_51
*411 _113_
*412 _114_
*413 _115_
*414 _116_
*415 _117_
*416 _118_
*417 _119_
*418 _120_
*419 _121_
*420 _122_
*421 _123_
*422 _124_
*423 _125_
*424 _126_
*425 _127_
*426 _128_
*427 _129_
*428 _130_
*429 _131_
*430 _132_
*431 _133_
*432 _134_
*433 _135_
*434 _136_
*435 _137_
*436 _138_
*437 _139_
*438 _140_
*439 _141_
*440 _142_
*441 _143_
*442 _144_
*443 _145_
*444 _146_
*445 _147_
*446 _148_
*447 _149_
*448 _150_
*449 _151_
*450 _152_
*451 _153_
*452 _154_
*453 _155_
*454 _156_
*455 _157_
*456 _158_
*457 _159_
*458 _160_
*459 _161_
*460 _162_
*461 _163_
*462 _164_
*463 _165_
*464 _166_
*465 _167_
*466 _168_
*467 _169_
*468 _170_
*469 _171_
*470 _172_
*471 _173_
*472 _174_
*473 _175_
*474 _176_
*475 _177_
*476 _178_
*477 _179_
*478 _180_
*479 _181_
*480 _182_
*481 _183_
*482 _184_
*483 _185_
*484 _186_
*485 _187_
*486 _188_
*487 _189_
*488 _190_
*489 _191_
*490 _192_
*491 _193_
*492 _194_
*493 _195_
*494 _196_
*495 _197_
*496 _198_
*497 _199_
*498 _200_
*499 _201_
*500 _202_
*501 _203_
*502 _204_
*503 _205_
*504 _206_
*505 _207_
*506 _208_
*507 _209_
*508 _210_
*509 _211_
*510 _212_
*511 _213_
*512 _214_
*513 _215_
*514 _216_
*515 _217_
*516 _218_
*517 _219_
*518 _220_
*519 _221_
*520 _222_
*521 _223_
*522 _224_
*523 _225_
*524 _226_
*525 _227_
*526 _228_
*527 _229_
*528 _230_
*529 _231_
*530 _232_
*531 _233_
*532 _234_
*533 _235_
*534 _236_
*535 _237_
*536 _238_
*537 _239_
*538 _240_
*539 _241_
*540 _242_
*541 clkbuf_0_clk
*542 clkbuf_1_0__f_clk
*543 clkbuf_1_1__f_clk
*544 clkload0
*545 clone1
*546 fanout19
*547 fanout20
*548 fanout21
*549 fanout22
*550 hold4
*551 hold5
*552 input1
*553 input10
*554 input11
*555 input12
*556 input13
*557 input14
*558 input15
*559 input16
*560 input17
*561 input2
*562 input3
*563 input4
*564 input5
*565 input6
*566 input7
*567 input8
*568 input9
*569 output18
*570 rebuffer2
*571 rebuffer3

*PORTS
clk I
out O
psc[0] I
psc[10] I
psc[11] I
psc[12] I
psc[13] I
psc[14] I
psc[15] I
psc[1] I
psc[2] I
psc[3] I
psc[4] I
psc[5] I
psc[6] I
psc[7] I
psc[8] I
psc[9] I
rst I

*D_NET *3 0.00575049
*CONN
*P clk I
*I *541:A I *D sky130_fd_sc_hd__clkbuf_16
*CAP
1 clk 0.00243927
2 *541:A 0
3 *3:11 0.00243927
4 *3:11 *427:B 0
5 *3:11 *429:B1_N 2.05503e-05
6 *3:11 *25:10 0.000437431
7 *3:11 *42:8 0
8 *3:11 *51:10 0
9 *3:11 *75:34 0.000115922
10 *3:11 *99:10 0.000207219
11 *3:11 *120:10 2.92701e-05
12 *3:11 *148:14 6.15678e-05
13 *3:11 *148:22 0
14 *3:11 *151:98 0
*RES
1 clk *3:11 42.2091 
2 *3:11 *541:A 23 
*END

*D_NET *4 0.00121018
*CONN
*P out O
*I *569:X O *D sky130_fd_sc_hd__buf_2
*CAP
1 out 0.000253687
2 *569:X 0.000137845
3 *4:8 0.000391532
4 *4:8 *55:10 9.98109e-05
5 *4:8 *136:12 0.000199701
6 *4:8 *136:16 0.000127606
*RES
1 *569:X *4:8 42.1946 
2 *4:8 out 8.84373 
*END

*D_NET *5 0.000901682
*CONN
*P psc[0] I
*I *552:A I *D sky130_fd_sc_hd__clkbuf_1
*CAP
1 psc[0] 0.000450841
2 *552:A 0.000450841
3 *552:A *567:A 0
*RES
1 psc[0] *552:A 47.3214 
*END

*D_NET *6 0.0012067
*CONN
*P psc[10] I
*I *561:A I *D sky130_fd_sc_hd__clkbuf_1
*CAP
1 psc[10] 0.000540893
2 *561:A 0.000540893
3 *561:A *438:B 5.41385e-05
4 *561:A *7:13 0
5 *561:A *126:16 5.50049e-05
6 *561:A *158:27 1.5769e-05
*RES
1 psc[10] *561:A 49.9107 
*END

*D_NET *7 0.00147627
*CONN
*P psc[11] I
*I *562:A I *D sky130_fd_sc_hd__clkbuf_1
*CAP
1 psc[11] 0.000571632
2 *562:A 0
3 *7:13 0.000571632
4 *7:13 *438:B 0.000128401
5 *7:13 *558:A 0
6 *7:13 *126:16 0.000143655
7 *7:13 *128:19 1.14452e-05
8 *7:13 *144:29 4.95081e-05
9 *561:A *7:13 0
*RES
1 psc[11] *7:13 29.1064 
2 *7:13 *562:A 23 
*END

*D_NET *8 0.00105322
*CONN
*P psc[12] I
*I *563:A I *D sky130_fd_sc_hd__clkbuf_1
*CAP
1 psc[12] 0.000526612
2 *563:A 0.000526612
3 *563:A *564:A 0
4 *563:A *10:11 0
*RES
1 psc[12] *563:A 49.5793 
*END

*D_NET *9 0.00108226
*CONN
*P psc[13] I
*I *564:A I *D sky130_fd_sc_hd__clkbuf_1
*CAP
1 psc[13] 0.000524985
2 *564:A 0.000524985
3 *564:A *159:10 3.22879e-05
4 *563:A *564:A 0
*RES
1 psc[13] *564:A 49.4343 
*END

*D_NET *10 0.00130601
*CONN
*P psc[14] I
*I *565:A I *D sky130_fd_sc_hd__clkbuf_1
*CAP
1 psc[14] 0.000603133
2 *565:A 0
3 *10:11 0.000603133
4 *10:11 *412:A 6.26126e-05
5 *10:11 *566:A 0
6 *10:11 *106:10 2.25149e-05
7 *10:11 *162:10 1.46205e-05
8 *563:A *10:11 0
*RES
1 psc[14] *10:11 28.0086 
2 *10:11 *565:A 23 
*END

*D_NET *11 0.00107746
*CONN
*P psc[15] I
*I *566:A I *D sky130_fd_sc_hd__clkbuf_1
*CAP
1 psc[15] 0.000538731
2 *566:A 0.000538731
3 *10:11 *566:A 0
*RES
1 psc[15] *566:A 49.4343 
*END

*D_NET *12 0.000901682
*CONN
*P psc[1] I
*I *567:A I *D sky130_fd_sc_hd__clkbuf_1
*CAP
1 psc[1] 0.000450841
2 *567:A 0.000450841
3 *567:A *568:A 0
4 *552:A *567:A 0
*RES
1 psc[1] *567:A 47.3214 
*END

*D_NET *13 0.00104115
*CONN
*P psc[2] I
*I *568:A I *D sky130_fd_sc_hd__clkbuf_1
*CAP
1 psc[2] 0.000481152
2 *568:A 0.000481152
3 *568:A *553:A 0
4 *568:A *163:10 7.88512e-05
5 *567:A *568:A 0
*RES
1 psc[2] *568:A 48.2743 
*END

*D_NET *14 0.00101207
*CONN
*P psc[3] I
*I *553:A I *D sky130_fd_sc_hd__clkbuf_1
*CAP
1 psc[3] 0.000504181
2 *553:A 0.000504181
3 *553:A *139:10 3.7122e-06
4 *568:A *553:A 0
*RES
1 psc[3] *553:A 48.5643 
*END

*D_NET *15 0.00123019
*CONN
*P psc[4] I
*I *554:A I *D sky130_fd_sc_hd__clkbuf_1
*CAP
1 psc[4] 0.000609163
2 *554:A 0.000609163
3 *554:A *16:15 0
4 *554:A *140:8 1.18615e-05
*RES
1 psc[4] *554:A 49.3721 
*END

*D_NET *16 0.00139957
*CONN
*P psc[5] I
*I *555:A I *D sky130_fd_sc_hd__clkbuf_1
*CAP
1 psc[5] 0.000639029
2 *555:A 0
3 *16:15 0.000639029
4 *16:15 *453:A2 4.07902e-05
5 *16:15 *556:A 0
6 *16:15 *63:6 6.17437e-06
7 *16:15 *63:21 4.79641e-05
8 *16:15 *67:10 1.32939e-05
9 *16:15 *142:8 1.32939e-05
10 *554:A *16:15 0
*RES
1 psc[5] *16:15 27.615 
2 *16:15 *555:A 23 
*END

*D_NET *17 0.00127837
*CONN
*P psc[6] I
*I *556:A I *D sky130_fd_sc_hd__buf_1
*CAP
1 psc[6] 0.000575466
2 *556:A 0.000575466
3 *556:A *453:A1 6.07611e-06
4 *556:A *453:A2 5.67058e-05
5 *556:A *557:A 0
6 *556:A *141:10 5.05574e-05
7 *556:A *142:8 1.40958e-05
8 *16:15 *556:A 0
*RES
1 psc[6] *556:A 49.3721 
*END

*D_NET *18 0.000908788
*CONN
*P psc[7] I
*I *557:A I *D sky130_fd_sc_hd__clkbuf_1
*CAP
1 psc[7] 0.000454394
2 *557:A 0.000454394
3 *557:A *141:10 0
4 *556:A *557:A 0
*RES
1 psc[7] *557:A 47.3214 
*END

*D_NET *19 0.00108257
*CONN
*P psc[8] I
*I *558:A I *D sky130_fd_sc_hd__clkbuf_1
*CAP
1 psc[8] 0.000527454
2 *558:A 0.000527454
3 *558:A *559:A 0
4 *558:A *130:8 4.6318e-06
5 *558:A *131:14 2.30292e-05
6 *7:13 *558:A 0
*RES
1 psc[8] *558:A 49.4343 
*END

*D_NET *20 0.00107746
*CONN
*P psc[9] I
*I *559:A I *D sky130_fd_sc_hd__clkbuf_1
*CAP
1 psc[9] 0.000538731
2 *559:A 0.000538731
3 *558:A *559:A 0
*RES
1 psc[9] *559:A 49.4343 
*END

*D_NET *21 0.000839498
*CONN
*P rst I
*I *560:A I *D sky130_fd_sc_hd__buf_1
*CAP
1 rst 0.000419749
2 *560:A 0
3 *21:11 0.000419749
4 *21:11 *513:A 0
5 *21:11 *146:10 0
*RES
1 rst *21:11 27.6004 
2 *21:11 *560:A 23 
*END

*D_NET *22 0.000295912
*CONN
*I *524:D I *D sky130_fd_sc_hd__dfrtp_2
*I *463:X O *D sky130_fd_sc_hd__and2b_1
*CAP
1 *524:D 0
2 *463:X 0.000131812
3 *22:10 0.000131812
4 *22:10 *525:CLK 3.22879e-05
5 *22:10 *136:20 0
6 *22:10 *165:10 0
*RES
1 *463:X *22:10 40.175 
2 *22:10 *524:D 38 
*END

*D_NET *23 0.0005777
*CONN
*I *534:D I *D sky130_fd_sc_hd__dfrtp_1
*I *494:X O *D sky130_fd_sc_hd__and2_1
*CAP
1 *534:D 0.000128512
2 *494:X 5.42001e-05
3 *23:8 0.000182712
4 *23:8 *96:10 7.03869e-05
5 *23:8 *166:27 0.000141888
*RES
1 *494:X *23:8 39.9057 
2 *23:8 *534:D 40.0507 
*END

*D_NET *24 0.000610795
*CONN
*I *535:D I *D sky130_fd_sc_hd__dfrtp_1
*I *497:X O *D sky130_fd_sc_hd__and3b_1
*CAP
1 *535:D 0
2 *497:X 0.000198732
3 *24:10 0.000198732
4 *24:10 *479:B 3.70187e-05
5 *24:10 *497:C 3.16784e-05
6 *24:10 *75:18 1.19692e-05
7 *24:10 *135:23 0
8 *24:10 *150:10 5.55911e-05
9 *24:10 *150:12 7.70737e-05
10 *24:10 *168:8 0
*RES
1 *497:X *24:10 41.8321 
2 *24:10 *535:D 38 
*END

*D_NET *25 0.00124366
*CONN
*I *536:D I *D sky130_fd_sc_hd__dfrtp_1
*I *500:X O *D sky130_fd_sc_hd__and3_1
*CAP
1 *536:D 0
2 *500:X 0.000375302
3 *25:10 0.000375302
4 *25:10 *148:96 5.56279e-05
5 *3:11 *25:10 0.000437431
*RES
1 *500:X *25:10 44.7529 
2 *25:10 *536:D 38 
*END

*D_NET *26 0.000828543
*CONN
*I *537:D I *D sky130_fd_sc_hd__dfrtp_1
*I *503:X O *D sky130_fd_sc_hd__and2_1
*CAP
1 *537:D 9.38443e-05
2 *503:X 0.000122059
3 *26:10 0.000215903
4 *537:D *523:A 5.50049e-05
5 *537:D *136:75 2.64616e-05
6 *537:D *136:92 6.82514e-05
7 *26:10 *151:68 5.87837e-05
8 *26:10 *153:10 1.94812e-05
9 *26:10 *153:49 0.000168754
*RES
1 *503:X *26:10 40.8793 
2 *26:10 *537:D 40.0507 
*END

*D_NET *27 0.000638392
*CONN
*I *538:D I *D sky130_fd_sc_hd__dfrtp_1
*I *506:X O *D sky130_fd_sc_hd__and3_1
*CAP
1 *538:D 0.000158836
2 *506:X 5.4232e-05
3 *27:8 0.000213068
4 *27:8 *104:21 7.03766e-05
5 *27:8 *153:37 0.000141879
*RES
1 *506:X *27:8 39.9057 
2 *27:8 *538:D 40.5271 
*END

*D_NET *28 0.000724105
*CONN
*I *539:D I *D sky130_fd_sc_hd__dfrtp_1
*I *507:Y O *D sky130_fd_sc_hd__a21boi_1
*CAP
1 *539:D 0
2 *507:Y 0.000334988
3 *28:10 0.000334988
4 *28:10 *153:37 5.41288e-05
*RES
1 *507:Y *28:10 42.9093 
2 *28:10 *539:D 38 
*END

*D_NET *29 0.000346994
*CONN
*I *525:D I *D sky130_fd_sc_hd__dfrtp_2
*I *466:X O *D sky130_fd_sc_hd__and3_1
*CAP
1 *525:D 3.09722e-05
2 *466:X 9.31651e-05
3 *29:8 0.000124137
4 *525:D *148:40 2.93747e-05
5 *29:8 *153:49 0
6 *29:8 *165:12 6.93449e-05
*RES
1 *466:X *29:8 39.9057 
2 *29:8 *525:D 38.6214 
*END

*D_NET *30 0.00062471
*CONN
*I *526:D I *D sky130_fd_sc_hd__dfrtp_1
*I *469:X O *D sky130_fd_sc_hd__and3_1
*CAP
1 *526:D 0
2 *469:X 0.000289404
3 *30:10 0.000289404
4 *30:10 *78:10 0
5 *30:10 *136:24 4.59027e-05
*RES
1 *469:X *30:10 42.6607 
2 *30:10 *526:D 38 
*END

*D_NET *31 0.000725626
*CONN
*I *527:D I *D sky130_fd_sc_hd__dfrtp_1
*I *472:X O *D sky130_fd_sc_hd__and3b_1
*CAP
1 *527:D 4.26905e-05
2 *472:X 0.000155421
3 *31:10 0.000198112
4 *527:D *136:46 7.53384e-06
5 *31:10 *470:A3 5.3304e-05
6 *31:10 *148:53 5.50049e-05
7 *31:10 *165:29 0
8 *31:10 *165:46 0
9 *31:10 *172:62 0.000151907
10 *31:10 *172:72 6.16531e-05
*RES
1 *472:X *31:10 41.5836 
2 *31:10 *527:D 38.6214 
*END

*D_NET *32 0.00101255
*CONN
*I *528:D I *D sky130_fd_sc_hd__dfrtp_1
*I *475:X O *D sky130_fd_sc_hd__and3_1
*CAP
1 *528:D 0
2 *475:X 0.00034123
3 *32:10 0.00034123
4 *32:10 *473:B 7.2918e-05
5 *32:10 *475:B 5.67058e-05
6 *32:10 *81:52 6.38342e-05
7 *32:10 *148:28 6.51843e-05
8 *32:10 *148:40 7.14493e-05
*RES
1 *475:X *32:10 43.3857 
2 *32:10 *528:D 38 
*END

*D_NET *33 0.000935181
*CONN
*I *529:D I *D sky130_fd_sc_hd__dfrtp_1
*I *479:X O *D sky130_fd_sc_hd__and3b_1
*CAP
1 *529:D 0.000362982
2 *479:X 5.94633e-05
3 *33:8 0.000422445
4 *529:D *529:CLK 4.00259e-06
5 *33:8 *71:10 8.62876e-05
*RES
1 *479:X *33:8 39.2014 
2 *33:8 *529:D 42.4536 
*END

*D_NET *34 0.000696526
*CONN
*I *530:D I *D sky130_fd_sc_hd__dfrtp_1
*I *482:X O *D sky130_fd_sc_hd__and3_1
*CAP
1 *530:D 2.81847e-05
2 *482:X 0.000249638
3 *34:8 0.000277823
4 *530:D *177:6 2.30292e-05
5 *34:8 *530:CLK 0
6 *34:8 *45:8 0
7 *34:8 *150:103 4.74853e-05
8 *34:8 *178:21 7.03663e-05
*RES
1 *482:X *34:8 42.7229 
2 *34:8 *530:D 38.6214 
*END

*D_NET *35 0.000415013
*CONN
*I *531:D I *D sky130_fd_sc_hd__dfrtp_1
*I *486:X O *D sky130_fd_sc_hd__and3b_1
*CAP
1 *531:D 8.54956e-05
2 *486:X 8.54956e-05
3 *531:D *484:A 6.70557e-05
4 *531:D *531:CLK 5.50106e-05
5 *531:D *146:20 4.75206e-05
6 *531:D *178:6 7.44354e-05
*RES
1 *486:X *531:D 48.5479 
*END

*D_NET *36 0.000595867
*CONN
*I *532:D I *D sky130_fd_sc_hd__dfrtp_1
*I *489:X O *D sky130_fd_sc_hd__and3b_1
*CAP
1 *532:D 0
2 *489:X 0.00016183
3 *36:10 0.00016183
4 *36:10 *489:C 9.67842e-05
5 *36:10 *91:29 2.32004e-05
6 *36:10 *137:18 3.81391e-05
7 *36:10 *150:74 0.000114083
*RES
1 *489:X *36:10 41.1279 
2 *36:10 *532:D 38 
*END

*D_NET *37 0.00042483
*CONN
*I *533:D I *D sky130_fd_sc_hd__dfrtp_1
*I *492:X O *D sky130_fd_sc_hd__and3b_1
*CAP
1 *533:D 1.80182e-05
2 *492:X 6.29305e-05
3 *37:8 8.09487e-05
4 *533:D *94:14 5.50106e-05
5 *533:D *180:31 2.93845e-05
6 *37:8 *492:C 8.4047e-05
7 *37:8 *493:B 3.70187e-05
8 *37:8 *93:59 1.14452e-05
9 *37:8 *180:68 4.60263e-05
*RES
1 *492:X *37:8 39.5536 
2 *37:8 *533:D 38.6214 
*END

*D_NET *38 0.000555344
*CONN
*I *524:RESET_B I *D sky130_fd_sc_hd__dfrtp_2
*I *424:Y O *D sky130_fd_sc_hd__inv_2
*CAP
1 *524:RESET_B 0.000161211
2 *424:Y 0.000161211
3 *524:RESET_B *424:A 9.84851e-05
4 *524:RESET_B *165:10 0.000134437
*RES
1 *424:Y *524:RESET_B 26.4075 
*END

*D_NET *39 0.000443184
*CONN
*I *525:RESET_B I *D sky130_fd_sc_hd__dfrtp_2
*I *508:Y O *D sky130_fd_sc_hd__inv_2
*CAP
1 *525:RESET_B 0
2 *508:Y 0.00016805
3 *39:10 0.00016805
4 *39:10 *508:A 2.30292e-05
5 *39:10 *83:8 0
6 *39:10 *151:36 8.40557e-05
*RES
1 *508:Y *39:10 41.2314 
2 *39:10 *525:RESET_B 15 
*END

*D_NET *40 0.000334173
*CONN
*I *526:RESET_B I *D sky130_fd_sc_hd__dfrtp_1
*I *509:Y O *D sky130_fd_sc_hd__inv_2
*CAP
1 *526:RESET_B 0.000103318
2 *509:Y 0.000103318
3 *526:RESET_B *136:31 0.000127537
*RES
1 *509:Y *526:RESET_B 25.4546 
*END

*D_NET *41 0.000413194
*CONN
*I *527:RESET_B I *D sky130_fd_sc_hd__dfrtp_1
*I *510:Y O *D sky130_fd_sc_hd__inv_2
*CAP
1 *527:RESET_B 6.93914e-05
2 *510:Y 6.93914e-05
3 *527:RESET_B *151:151 0.000127537
4 *527:RESET_B *174:6 5.50106e-05
5 *527:RESET_B *174:10 9.18637e-05
*RES
1 *510:Y *527:RESET_B 25.4546 
*END

*D_NET *42 0.000996473
*CONN
*I *528:RESET_B I *D sky130_fd_sc_hd__dfrtp_1
*I *511:Y O *D sky130_fd_sc_hd__inv_2
*CAP
1 *528:RESET_B 0
2 *511:Y 0.000436248
3 *42:8 0.000436248
4 *42:8 *473:A 0
5 *42:8 *148:22 0.000107776
6 *42:8 *148:28 1.62015e-05
7 *42:8 *148:53 0
8 *3:11 *42:8 0
*RES
1 *511:Y *42:8 46.2443 
2 *42:8 *528:RESET_B 15 
*END

*D_NET *43 0.000699729
*CONN
*I *529:RESET_B I *D sky130_fd_sc_hd__dfrtp_1
*I *512:Y O *D sky130_fd_sc_hd__inv_2
*CAP
1 *529:RESET_B 0
2 *512:Y 0.000261083
3 *43:10 0.000261083
4 *43:10 *479:A_N 3.21223e-05
5 *43:10 *84:10 0.000113153
6 *43:10 *152:65 3.22879e-05
*RES
1 *512:Y *43:10 42.0807 
2 *43:10 *529:RESET_B 15 
*END

*D_NET *44 0.000398735
*CONN
*I *530:RESET_B I *D sky130_fd_sc_hd__dfrtp_1
*I *513:Y O *D sky130_fd_sc_hd__inv_2
*CAP
1 *530:RESET_B 0
2 *513:Y 0.000199368
3 *44:10 0.000199368
4 *44:10 *446:A_N 0
5 *44:10 *513:A 0
6 *44:10 *178:21 0
*RES
1 *513:Y *44:10 41.3557 
2 *44:10 *530:RESET_B 15 
*END

*D_NET *45 0.000200956
*CONN
*I *531:RESET_B I *D sky130_fd_sc_hd__dfrtp_1
*I *514:Y O *D sky130_fd_sc_hd__inv_2
*CAP
1 *531:RESET_B 0
2 *514:Y 8.3169e-05
3 *45:8 8.3169e-05
4 *45:8 *513:A 3.46181e-05
5 *34:8 *45:8 0
*RES
1 *514:Y *45:8 39.5536 
2 *45:8 *531:RESET_B 15 
*END

*D_NET *46 0.000368245
*CONN
*I *532:RESET_B I *D sky130_fd_sc_hd__dfrtp_1
*I *515:Y O *D sky130_fd_sc_hd__inv_2
*CAP
1 *532:RESET_B 0
2 *515:Y 0.000124895
3 *46:10 0.000124895
4 *46:10 *515:A 7.53384e-06
5 *46:10 *150:74 0
6 *46:10 *152:43 0.000110922
*RES
1 *515:Y *46:10 40.175 
2 *46:10 *532:RESET_B 15 
*END

*D_NET *47 0.000257118
*CONN
*I *533:RESET_B I *D sky130_fd_sc_hd__dfrtp_1
*I *516:Y O *D sky130_fd_sc_hd__inv_2
*CAP
1 *533:RESET_B 0
2 *516:Y 7.19824e-05
3 *47:8 7.19824e-05
4 *47:8 *517:A 0.000113153
*RES
1 *516:Y *47:8 39.5536 
2 *47:8 *533:RESET_B 15 
*END

*D_NET *48 0.000294838
*CONN
*I *534:RESET_B I *D sky130_fd_sc_hd__dfrtp_1
*I *517:Y O *D sky130_fd_sc_hd__inv_2
*CAP
1 *534:RESET_B 0
2 *517:Y 0.000147419
3 *48:10 0.000147419
4 *48:10 *150:65 0
*RES
1 *517:Y *48:10 40.5271 
2 *48:10 *534:RESET_B 15 
*END

*D_NET *49 0.000468467
*CONN
*I *535:RESET_B I *D sky130_fd_sc_hd__dfrtp_1
*I *518:Y O *D sky130_fd_sc_hd__inv_2
*CAP
1 *535:RESET_B 0
2 *518:Y 0.00012047
3 *49:10 0.00012047
4 *49:10 *97:8 9.63815e-05
5 *49:10 *110:8 9.88575e-05
6 *49:10 *179:26 3.22879e-05
*RES
1 *518:Y *49:10 41.2314 
2 *49:10 *535:RESET_B 15 
*END

*D_NET *50 0.000441955
*CONN
*I *536:RESET_B I *D sky130_fd_sc_hd__dfrtp_1
*I *519:Y O *D sky130_fd_sc_hd__inv_2
*CAP
1 *536:RESET_B 0
2 *519:Y 0.000110111
3 *50:10 0.000110111
4 *50:10 *497:A_N 5.561e-05
5 *50:10 *498:A 5.50106e-05
6 *50:10 *107:12 8.04908e-05
7 *50:10 *135:23 2.04774e-05
8 *50:10 *151:113 1.01436e-05
*RES
1 *519:Y *50:10 40.8793 
2 *50:10 *536:RESET_B 15 
*END

*D_NET *51 0.000896199
*CONN
*I *537:RESET_B I *D sky130_fd_sc_hd__dfrtp_1
*I *520:Y O *D sky130_fd_sc_hd__inv_2
*CAP
1 *537:RESET_B 0
2 *520:Y 0.000330262
3 *51:10 0.000330262
4 *51:10 *101:40 0.000188926
5 *51:10 *151:68 0
6 *51:10 *151:84 4.67488e-05
7 *3:11 *51:10 0
*RES
1 *520:Y *51:10 43.8207 
2 *51:10 *537:RESET_B 15 
*END

*D_NET *52 0.00139656
*CONN
*I *538:RESET_B I *D sky130_fd_sc_hd__dfrtp_1
*I *521:Y O *D sky130_fd_sc_hd__inv_2
*CAP
1 *538:RESET_B 0.000184733
2 *521:Y 0.000210312
3 *52:10 0.000395045
4 *538:RESET_B *427:A_N 9.4713e-05
5 *538:RESET_B *170:6 5.3304e-05
6 *538:RESET_B *170:31 9.41704e-05
7 *52:10 *151:76 0.000191255
8 *52:10 *155:8 0.000138718
9 *52:10 *170:31 3.43144e-05
*RES
1 *521:Y *52:10 41.9564 
2 *52:10 *538:RESET_B 18.9046 
*END

*D_NET *53 0.000801323
*CONN
*I *539:RESET_B I *D sky130_fd_sc_hd__dfrtp_1
*I *522:Y O *D sky130_fd_sc_hd__inv_2
*CAP
1 *539:RESET_B 0.000194579
2 *522:Y 9.26835e-05
3 *53:8 0.000287262
4 *539:RESET_B *171:10 1.73399e-05
5 *53:8 *427:B 0
6 *53:8 *522:A 0.000197479
7 *53:8 *170:31 1.19796e-05
*RES
1 *522:Y *53:8 40.61 
2 *53:8 *539:RESET_B 17.9311 
*END

*D_NET *54 0.00064446
*CONN
*I *540:RESET_B I *D sky130_fd_sc_hd__dfrtp_1
*I *523:Y O *D sky130_fd_sc_hd__inv_2
*CAP
1 *540:RESET_B 0.000127666
2 *523:Y 4.96283e-05
3 *54:8 0.000177295
4 *540:RESET_B *153:16 2.18409e-05
5 *540:RESET_B *153:20 9.8326e-05
6 *54:8 *550:A 5.56203e-05
7 *54:8 *153:49 0.000114083
*RES
1 *523:Y *54:8 39.5536 
2 *54:8 *540:RESET_B 17.4546 
*END

*D_NET *55 0.000729299
*CONN
*I *540:D I *D sky130_fd_sc_hd__dfrtp_1
*I *462:Y O *D sky130_fd_sc_hd__xnor2_1
*CAP
1 *540:D 4.49845e-05
2 *462:Y 0.000204447
3 *55:10 0.000249431
4 *55:10 *136:16 1.35425e-05
5 *55:10 *136:18 7.80612e-05
6 *55:10 *136:75 3.90211e-05
7 *4:8 *55:10 9.98109e-05
*RES
1 *462:Y *55:10 42.06 
2 *55:10 *540:D 38.6214 
*END

*D_NET *56 0.00039964
*CONN
*I *445:B1 I *D sky130_fd_sc_hd__a21o_1
*I *442:X O *D sky130_fd_sc_hd__a22o_1
*CAP
1 *445:B1 0.000143127
2 *442:X 0.000143127
3 *445:B1 *445:A1 5.54294e-05
4 *445:B1 *58:10 5.79559e-05
*RES
1 *442:X *445:B1 49.045 
*END

*D_NET *57 0.00131317
*CONN
*I *445:A1 I *D sky130_fd_sc_hd__a21o_1
*I *443:X O *D sky130_fd_sc_hd__a211o_1
*CAP
1 *445:A1 4.37821e-05
2 *443:X 0.000417765
3 *57:10 0.000461547
4 *57:10 *114:14 5.50929e-05
5 *57:10 *114:27 7.51453e-06
6 *57:10 *116:6 0.000272038
7 *445:B1 *445:A1 5.54294e-05
*RES
1 *443:X *57:10 44.1107 
2 *57:10 *445:A1 38.6214 
*END

*D_NET *58 0.000683195
*CONN
*I *445:A2 I *D sky130_fd_sc_hd__a21o_1
*I *444:X O *D sky130_fd_sc_hd__o22a_1
*CAP
1 *445:A2 0
2 *444:X 0.000164679
3 *58:10 0.000164679
4 *58:10 *442:B1 2.93845e-05
5 *58:10 *442:B2 5.79559e-05
6 *58:10 *444:A1 2.1819e-05
7 *58:10 *172:72 0.000131095
8 *58:10 *174:30 5.56279e-05
9 *445:B1 *58:10 5.79559e-05
*RES
1 *444:X *58:10 27.5986 
2 *58:10 *445:A2 23 
*END

*D_NET *59 0.00127045
*CONN
*I *457:A1 I *D sky130_fd_sc_hd__a21oi_1
*I *445:X O *D sky130_fd_sc_hd__a21o_1
*CAP
1 *457:A1 0.000278664
2 *445:X 8.72538e-05
3 *59:8 0.000365918
4 *457:A1 *457:B1 0
5 *457:A1 *60:24 0.000438468
6 *457:A1 *174:18 1.24376e-05
7 *59:8 *60:24 5.80963e-05
8 *59:8 *148:53 2.96154e-05
9 *59:8 *174:57 0
*RES
1 *445:X *59:8 39.9057 
2 *59:8 *457:A1 44.3593 
*END

*D_NET *60 0.00296559
*CONN
*I *456:B1_N I *D sky130_fd_sc_hd__a21boi_1
*I *447:C1 I *D sky130_fd_sc_hd__o221a_1
*I *446:Y O *D sky130_fd_sc_hd__nand2b_1
*CAP
1 *456:B1_N 0
2 *447:C1 0
3 *446:Y 0.000282136
4 *60:24 0.000426686
5 *60:14 0.000575546
6 *60:10 0.000430997
7 *60:10 *451:A1 3.22879e-05
8 *60:10 *451:A2 0.00010018
9 *60:10 *451:B1 7.59794e-05
10 *60:10 *65:6 5.50106e-05
11 *60:10 *65:21 6.79006e-05
12 *60:10 *69:8 5.01247e-05
13 *60:10 *176:38 0
14 *60:14 *456:A2 5.50049e-05
15 *60:14 *457:B1 5.25848e-05
16 *60:14 *71:8 6.68919e-05
17 *60:24 *457:B1 3.53115e-05
18 *60:24 *71:8 0.00010018
19 *60:24 *114:27 6.07611e-06
20 *60:24 *174:57 5.61311e-05
21 *60:24 *175:23 0
22 *457:A1 *60:24 0.000438468
23 *59:8 *60:24 5.80963e-05
*RES
1 *446:Y *60:10 44.2143 
2 *60:10 *60:14 18.0036 
3 *60:14 *60:24 39.9221 
4 *60:24 *447:C1 23 
5 *60:14 *456:B1_N 23 
*END

*D_NET *61 0.000766005
*CONN
*I *454:A I *D sky130_fd_sc_hd__and4_1
*I *447:X O *D sky130_fd_sc_hd__o221a_1
*CAP
1 *454:A 0
2 *447:X 0.000265483
3 *61:6 0.000265483
4 *61:6 *447:A1 5.50049e-05
5 *61:6 *454:C 0.00014196
6 *61:6 *68:10 3.80755e-05
*RES
1 *447:X *61:6 27.9093 
2 *61:6 *454:A 23 
*END

*D_NET *62 0.00113774
*CONN
*I *455:B1 I *D sky130_fd_sc_hd__a221o_1
*I *450:A I *D sky130_fd_sc_hd__and2_1
*I *448:Y O *D sky130_fd_sc_hd__nand2b_1
*CAP
1 *455:B1 0.00016748
2 *450:A 7.7551e-05
3 *448:Y 0
4 *62:6 0.000245031
5 *450:A *449:B 0
6 *450:A *63:21 0
7 *450:A *67:10 0.000116314
8 *455:B1 *448:A_N 1.14762e-05
9 *455:B1 *448:B 0.000148737
10 *455:B1 *449:B 0
11 *455:B1 *452:A_N 0.000171296
12 *455:B1 *455:C1 4.03539e-05
13 *455:B1 *63:21 1.28818e-05
14 *455:B1 *66:8 2.93845e-05
15 *455:B1 *67:10 0.000117235
*RES
1 *448:Y *62:6 38 
2 *62:6 *450:A 39.9057 
3 *62:6 *455:B1 42.5571 
*END

*D_NET *63 0.00105857
*CONN
*I *455:B2 I *D sky130_fd_sc_hd__a221o_1
*I *450:B I *D sky130_fd_sc_hd__and2_1
*I *449:Y O *D sky130_fd_sc_hd__nand2b_1
*CAP
1 *455:B2 0
2 *450:B 0
3 *449:Y 0.000101571
4 *63:21 0.000148854
5 *63:6 0.000250424
6 *63:6 *67:10 3.22879e-05
7 *63:21 *449:B 0
8 *63:21 *455:C1 1.28818e-05
9 *63:21 *64:10 0.000163361
10 *63:21 *66:23 0.00021356
11 *63:21 *67:10 6.18924e-05
12 *63:21 *142:19 6.7177e-06
13 *450:A *63:21 0
14 *455:B1 *63:21 1.28818e-05
15 *16:15 *63:6 6.17437e-06
16 *16:15 *63:21 4.79641e-05
*RES
1 *449:Y *63:6 25.0507 
2 *63:6 *450:B 23 
3 *63:6 *63:21 34.5623 
4 *63:21 *455:B2 23 
*END

*D_NET *64 0.000932707
*CONN
*I *454:B I *D sky130_fd_sc_hd__and4_1
*I *450:X O *D sky130_fd_sc_hd__and2_1
*CAP
1 *454:B 0
2 *450:X 0.000262528
3 *64:10 0.000262528
4 *64:10 *451:B1 0
5 *64:10 *67:10 0.000158003
6 *64:10 *176:38 8.62876e-05
7 *63:21 *64:10 0.000163361
*RES
1 *450:X *64:10 42.64 
2 *64:10 *454:B 38 
*END

*D_NET *65 0.0010218
*CONN
*I *456:A1 I *D sky130_fd_sc_hd__a21boi_1
*I *454:C I *D sky130_fd_sc_hd__and4_1
*I *451:X O *D sky130_fd_sc_hd__o22a_1
*CAP
1 *456:A1 0
2 *454:C 0.00011177
3 *451:X 0.000117837
4 *65:21 9.28087e-05
5 *65:6 0.000322416
6 *65:21 *69:8 0
7 *65:21 *71:10 8.9458e-05
8 *65:21 *176:38 2.26385e-05
9 *60:10 *65:6 5.50106e-05
10 *60:10 *65:21 6.79006e-05
11 *61:6 *454:C 0.00014196
*RES
1 *451:X *65:6 24.5743 
2 *65:6 *454:C 25.7757 
3 *65:6 *65:21 32.2579 
4 *65:21 *456:A1 23 
*END

*D_NET *66 0.00133957
*CONN
*I *453:B1 I *D sky130_fd_sc_hd__a21oi_1
*I *455:C1 I *D sky130_fd_sc_hd__a221o_1
*I *452:X O *D sky130_fd_sc_hd__and2b_1
*CAP
1 *453:B1 0
2 *455:C1 7.07187e-05
3 *452:X 0.000101146
4 *66:23 9.78957e-05
5 *66:8 0.000269761
6 *455:C1 *448:A_N 8.58874e-05
7 *66:8 *448:A_N 0.00013961
8 *66:8 *452:A_N 4.46113e-05
9 *66:8 *452:B 5.90675e-06
10 *66:8 *455:A2 0.000120217
11 *66:23 *453:A1 4.68476e-05
12 *66:23 *142:19 6.07929e-05