* NGSPICE file created from freq_psc.ext - technology: sky130A

* Black-box entry subcircuit for sky130_fd_sc_hd__tapvpwrvgnd_1 abstract view
.subckt sky130_fd_sc_hd__tapvpwrvgnd_1 VGND VPWR
.ends

* Black-box entry subcircuit for sky130_ef_sc_hd__decap_12 abstract view
.subckt sky130_ef_sc_hd__decap_12 VPWR VGND VPB VNB
.ends

* Black-box entry subcircuit for sky130_fd_sc_hd__decap_8 abstract view
.subckt sky130_fd_sc_hd__decap_8 VGND VNB VPB VPWR
.ends

* Black-box entry subcircuit for sky130_fd_sc_hd__inv_2 abstract view
.subckt sky130_fd_sc_hd__inv_2 A VGND VNB VPB VPWR Y
.ends

* Black-box entry subcircuit for sky130_fd_sc_hd__decap_3 abstract view
.subckt sky130_fd_sc_hd__decap_3 VGND VNB VPB VPWR
.ends

* Black-box entry subcircuit for sky130_fd_sc_hd__fill_1 abstract view
.subckt sky130_fd_sc_hd__fill_1 VGND VNB VPB VPWR
.ends

* Black-box entry subcircuit for sky130_fd_sc_hd__o31a_1 abstract view
.subckt sky130_fd_sc_hd__o31a_1 A1 A2 A3 B1 VGND VNB VPB VPWR X
.ends

* Black-box entry subcircuit for sky130_fd_sc_hd__fill_2 abstract view
.subckt sky130_fd_sc_hd__fill_2 VGND VNB VPB VPWR
.ends

* Black-box entry subcircuit for sky130_fd_sc_hd__decap_6 abstract view
.subckt sky130_fd_sc_hd__decap_6 VGND VNB VPB VPWR
.ends

* Black-box entry subcircuit for sky130_fd_sc_hd__and2_1 abstract view
.subckt sky130_fd_sc_hd__and2_1 A B VGND VNB VPB VPWR X
.ends

* Black-box entry subcircuit for sky130_fd_sc_hd__and4bb_1 abstract view
.subckt sky130_fd_sc_hd__and4bb_1 A_N B_N C D VGND VNB VPB VPWR X
.ends

* Black-box entry subcircuit for sky130_fd_sc_hd__o22ai_1 abstract view
.subckt sky130_fd_sc_hd__o22ai_1 A1 A2 B1 B2 VGND VNB VPB VPWR Y
.ends

* Black-box entry subcircuit for sky130_fd_sc_hd__dfrtp_1 abstract view
.subckt sky130_fd_sc_hd__dfrtp_1 CLK D RESET_B VGND VNB VPB VPWR Q
.ends

* Black-box entry subcircuit for sky130_fd_sc_hd__or2_1 abstract view
.subckt sky130_fd_sc_hd__or2_1 A B VGND VNB VPB VPWR X
.ends

* Black-box entry subcircuit for sky130_fd_sc_hd__nand2_1 abstract view
.subckt sky130_fd_sc_hd__nand2_1 A B VGND VNB VPB VPWR Y
.ends

* Black-box entry subcircuit for sky130_fd_sc_hd__and3_1 abstract view
.subckt sky130_fd_sc_hd__and3_1 A B C VGND VNB VPB VPWR X
.ends

* Black-box entry subcircuit for sky130_fd_sc_hd__nor2_1 abstract view
.subckt sky130_fd_sc_hd__nor2_1 A B VGND VNB VPB VPWR Y
.ends

* Black-box entry subcircuit for sky130_fd_sc_hd__or4_2 abstract view
.subckt sky130_fd_sc_hd__or4_2 A B C D VGND VNB VPB VPWR X
.ends

* Black-box entry subcircuit for sky130_fd_sc_hd__o221a_1 abstract view
.subckt sky130_fd_sc_hd__o221a_1 A1 A2 B1 B2 C1 VGND VNB VPB VPWR X
.ends

* Black-box entry subcircuit for sky130_fd_sc_hd__dfrtp_2 abstract view
.subckt sky130_fd_sc_hd__dfrtp_2 CLK D RESET_B VGND VNB VPB VPWR Q
.ends

* Black-box entry subcircuit for sky130_fd_sc_hd__o21bai_1 abstract view
.subckt sky130_fd_sc_hd__o21bai_1 A1 A2 B1_N VGND VNB VPB VPWR Y
.ends

* Black-box entry subcircuit for sky130_fd_sc_hd__and4_1 abstract view
.subckt sky130_fd_sc_hd__and4_1 A B C D VGND VNB VPB VPWR X
.ends

* Black-box entry subcircuit for sky130_fd_sc_hd__and2b_1 abstract view
.subckt sky130_fd_sc_hd__and2b_1 A_N B VGND VNB VPB VPWR X
.ends

* Black-box entry subcircuit for sky130_fd_sc_hd__a221o_1 abstract view
.subckt sky130_fd_sc_hd__a221o_1 A1 A2 B1 B2 C1 VGND VNB VPB VPWR X
.ends

* Black-box entry subcircuit for sky130_fd_sc_hd__decap_4 abstract view
.subckt sky130_fd_sc_hd__decap_4 VGND VNB VPB VPWR
.ends

* Black-box entry subcircuit for sky130_fd_sc_hd__o22a_1 abstract view
.subckt sky130_fd_sc_hd__o22a_1 A1 A2 B1 B2 VGND VNB VPB VPWR X
.ends

* Black-box entry subcircuit for sky130_fd_sc_hd__o21a_1 abstract view
.subckt sky130_fd_sc_hd__o21a_1 A1 A2 B1 VGND VNB VPB VPWR X
.ends

* Black-box entry subcircuit for sky130_fd_sc_hd__and3b_1 abstract view
.subckt sky130_fd_sc_hd__and3b_1 A_N B C VGND VNB VPB VPWR X
.ends

* Black-box entry subcircuit for sky130_fd_sc_hd__dlygate4sd1_1 abstract view
.subckt sky130_fd_sc_hd__dlygate4sd1_1 A VGND VNB VPB VPWR X
.ends

* Black-box entry subcircuit for sky130_fd_sc_hd__a31oi_1 abstract view
.subckt sky130_fd_sc_hd__a31oi_1 A1 A2 A3 B1 VGND VNB VPB VPWR Y
.ends

* Black-box entry subcircuit for sky130_fd_sc_hd__or3_4 abstract view
.subckt sky130_fd_sc_hd__or3_4 A B C VGND VNB VPB VPWR X
.ends

* Black-box entry subcircuit for sky130_fd_sc_hd__a21oi_1 abstract view
.subckt sky130_fd_sc_hd__a21oi_1 A1 A2 B1 VGND VNB VPB VPWR Y
.ends

* Black-box entry subcircuit for sky130_fd_sc_hd__buf_2 abstract view
.subckt sky130_fd_sc_hd__buf_2 A VGND VNB VPB VPWR X
.ends

* Black-box entry subcircuit for sky130_fd_sc_hd__nand2b_1 abstract view
.subckt sky130_fd_sc_hd__nand2b_1 A_N B VGND VNB VPB VPWR Y
.ends

* Black-box entry subcircuit for sky130_fd_sc_hd__xnor2_2 abstract view
.subckt sky130_fd_sc_hd__xnor2_2 A B VGND VNB VPB VPWR Y
.ends

* Black-box entry subcircuit for sky130_fd_sc_hd__bufinv_16 abstract view
.subckt sky130_fd_sc_hd__bufinv_16 A VGND VNB VPB VPWR Y
.ends

* Black-box entry subcircuit for sky130_fd_sc_hd__o21ai_1 abstract view
.subckt sky130_fd_sc_hd__o21ai_1 A1 A2 B1 VGND VNB VPB VPWR Y
.ends

* Black-box entry subcircuit for sky130_fd_sc_hd__a21o_1 abstract view
.subckt sky130_fd_sc_hd__a21o_1 A1 A2 B1 VGND VNB VPB VPWR X
.ends

* Black-box entry subcircuit for sky130_fd_sc_hd__clkbuf_4 abstract view
.subckt sky130_fd_sc_hd__clkbuf_4 A VGND VNB VPB VPWR X
.ends

* Black-box entry subcircuit for sky130_fd_sc_hd__a22oi_1 abstract view
.subckt sky130_fd_sc_hd__a22oi_1 A1 A2 B1 B2 VGND VNB VPB VPWR Y
.ends

* Black-box entry subcircuit for sky130_fd_sc_hd__a22o_1 abstract view
.subckt sky130_fd_sc_hd__a22o_1 A1 A2 B1 B2 VGND VNB VPB VPWR X
.ends

* Black-box entry subcircuit for sky130_fd_sc_hd__clkbuf_8 abstract view
.subckt sky130_fd_sc_hd__clkbuf_8 A VGND VNB VPB VPWR X
.ends

* Black-box entry subcircuit for sky130_fd_sc_hd__clkbuf_16 abstract view
.subckt sky130_fd_sc_hd__clkbuf_16 A VGND VNB VPB VPWR X
.ends

* Black-box entry subcircuit for sky130_fd_sc_hd__o41a_1 abstract view
.subckt sky130_fd_sc_hd__o41a_1 A1 A2 A3 A4 B1 VGND VNB VPB VPWR X
.ends

* Black-box entry subcircuit for sky130_fd_sc_hd__buf_4 abstract view
.subckt sky130_fd_sc_hd__buf_4 A VGND VNB VPB VPWR X
.ends

* Black-box entry subcircuit for sky130_fd_sc_hd__xnor2_1 abstract view
.subckt sky130_fd_sc_hd__xnor2_1 A B VGND VNB VPB VPWR Y
.ends

* Black-box entry subcircuit for sky130_fd_sc_hd__or3_1 abstract view
.subckt sky130_fd_sc_hd__or3_1 A B C VGND VNB VPB VPWR X
.ends

* Black-box entry subcircuit for sky130_fd_sc_hd__nand4_2 abstract view
.subckt sky130_fd_sc_hd__nand4_2 A B C D VGND VNB VPB VPWR Y
.ends

* Black-box entry subcircuit for sky130_fd_sc_hd__o211ai_1 abstract view
.subckt sky130_fd_sc_hd__o211ai_1 A1 A2 B1 C1 VGND VNB VPB VPWR Y
.ends

* Black-box entry subcircuit for sky130_fd_sc_hd__xor2_1 abstract view
.subckt sky130_fd_sc_hd__xor2_1 A B VGND VNB VPB VPWR X
.ends

* Black-box entry subcircuit for sky130_fd_sc_hd__a31o_1 abstract view
.subckt sky130_fd_sc_hd__a31o_1 A1 A2 A3 B1 VGND VNB VPB VPWR X
.ends

* Black-box entry subcircuit for sky130_fd_sc_hd__a21bo_1 abstract view
.subckt sky130_fd_sc_hd__a21bo_1 A1 A2 B1_N VGND VNB VPB VPWR X
.ends

* Black-box entry subcircuit for sky130_fd_sc_hd__or4_1 abstract view
.subckt sky130_fd_sc_hd__or4_1 A B C D VGND VNB VPB VPWR X
.ends

* Black-box entry subcircuit for sky130_fd_sc_hd__buf_6 abstract view
.subckt sky130_fd_sc_hd__buf_6 A VGND VNB VPB VPWR X
.ends

* Black-box entry subcircuit for sky130_fd_sc_hd__a31oi_4 abstract view
.subckt sky130_fd_sc_hd__a31oi_4 A1 A2 A3 B1 VGND VNB VPB VPWR Y
.ends

* Black-box entry subcircuit for sky130_fd_sc_hd__or4_4 abstract view
.subckt sky130_fd_sc_hd__or4_4 A B C D VGND VNB VPB VPWR X
.ends

* Black-box entry subcircuit for sky130_fd_sc_hd__dlymetal6s2s_1 abstract view
.subckt sky130_fd_sc_hd__dlymetal6s2s_1 A VGND VNB VPB VPWR X
.ends

* Black-box entry subcircuit for sky130_fd_sc_hd__nor4_4 abstract view
.subckt sky130_fd_sc_hd__nor4_4 A B C D VGND VNB VPB VPWR Y
.ends

* Black-box entry subcircuit for sky130_fd_sc_hd__clkbuf_1 abstract view
.subckt sky130_fd_sc_hd__clkbuf_1 A VGND VNB VPB VPWR X
.ends

* Black-box entry subcircuit for sky130_fd_sc_hd__nor3_1 abstract view
.subckt sky130_fd_sc_hd__nor3_1 A B C VGND VNB VPB VPWR Y
.ends

* Black-box entry subcircuit for sky130_fd_sc_hd__buf_1 abstract view
.subckt sky130_fd_sc_hd__buf_1 A VGND VNB VPB VPWR X
.ends

* Black-box entry subcircuit for sky130_fd_sc_hd__or4b_1 abstract view
.subckt sky130_fd_sc_hd__or4b_1 A B C D_N VGND VNB VPB VPWR X
.ends

* Black-box entry subcircuit for sky130_fd_sc_hd__clkbuf_2 abstract view
.subckt sky130_fd_sc_hd__clkbuf_2 A VGND VNB VPB VPWR X
.ends

* Black-box entry subcircuit for sky130_fd_sc_hd__a2bb2o_4 abstract view
.subckt sky130_fd_sc_hd__a2bb2o_4 A1_N A2_N B1 B2 VGND VNB VPB VPWR X
.ends

* Black-box entry subcircuit for sky130_fd_sc_hd__o31ai_4 abstract view
.subckt sky130_fd_sc_hd__o31ai_4 A1 A2 A3 B1 VGND VNB VPB VPWR Y
.ends

* Black-box entry subcircuit for sky130_fd_sc_hd__o211a_1 abstract view
.subckt sky130_fd_sc_hd__o211a_1 A1 A2 B1 C1 VGND VNB VPB VPWR X
.ends

* Black-box entry subcircuit for sky130_fd_sc_hd__or3b_1 abstract view
.subckt sky130_fd_sc_hd__or3b_1 A B C_N VGND VNB VPB VPWR X
.ends

* Black-box entry subcircuit for sky130_fd_sc_hd__o211a_4 abstract view
.subckt sky130_fd_sc_hd__o211a_4 A1 A2 B1 C1 VGND VNB VPB VPWR X
.ends

* Black-box entry subcircuit for sky130_fd_sc_hd__and2_4 abstract view
.subckt sky130_fd_sc_hd__and2_4 A B VGND VNB VPB VPWR X
.ends

* Black-box entry subcircuit for sky130_fd_sc_hd__dfrtp_4 abstract view
.subckt sky130_fd_sc_hd__dfrtp_4 CLK D RESET_B VGND VNB VPB VPWR Q
.ends

* Black-box entry subcircuit for sky130_fd_sc_hd__a2bb2o_1 abstract view
.subckt sky130_fd_sc_hd__a2bb2o_1 A1_N A2_N B1 B2 VGND VNB VPB VPWR X
.ends

* Black-box entry subcircuit for sky130_fd_sc_hd__o21ba_1 abstract view
.subckt sky130_fd_sc_hd__o21ba_1 A1 A2 B1_N VGND VNB VPB VPWR X
.ends

* Black-box entry subcircuit for sky130_fd_sc_hd__or4b_4 abstract view
.subckt sky130_fd_sc_hd__or4b_4 A B C D_N VGND VNB VPB VPWR X
.ends

* Black-box entry subcircuit for sky130_fd_sc_hd__and4b_1 abstract view
.subckt sky130_fd_sc_hd__and4b_1 A_N B C D VGND VNB VPB VPWR X
.ends

* Black-box entry subcircuit for sky130_fd_sc_hd__a2111o_1 abstract view
.subckt sky130_fd_sc_hd__a2111o_1 A1 A2 B1 C1 D1 VGND VNB VPB VPWR X
.ends

* Black-box entry subcircuit for sky130_fd_sc_hd__o2bb2a_1 abstract view
.subckt sky130_fd_sc_hd__o2bb2a_1 A1_N A2_N B1 B2 VGND VNB VPB VPWR X
.ends

* Black-box entry subcircuit for sky130_fd_sc_hd__o32a_1 abstract view
.subckt sky130_fd_sc_hd__o32a_1 A1 A2 A3 B1 B2 VGND VNB VPB VPWR X
.ends

* Black-box entry subcircuit for sky130_fd_sc_hd__a211o_1 abstract view
.subckt sky130_fd_sc_hd__a211o_1 A1 A2 B1 C1 VGND VNB VPB VPWR X
.ends

* Black-box entry subcircuit for sky130_fd_sc_hd__or4bb_1 abstract view
.subckt sky130_fd_sc_hd__or4bb_1 A B C_N D_N VGND VNB VPB VPWR X
.ends

.subckt freq_psc VGND VPWR clk out psc[0] psc[10] psc[11] psc[12] psc[13] psc[14]
+ psc[15] psc[16] psc[17] psc[18] psc[19] psc[1] psc[20] psc[21] psc[22] psc[23] psc[24]
+ psc[25] psc[26] psc[27] psc[28] psc[29] psc[2] psc[30] psc[31] psc[3] psc[4] psc[5]
+ psc[6] psc[7] psc[8] psc[9] rst
XTAP_TAPCELL_ROW_24_139 VGND VPWR sky130_fd_sc_hd__tapvpwrvgnd_1
XFILLER_26_85 VPWR VGND VPWR VGND sky130_ef_sc_hd__decap_12
XFILLER_26_74 VGND VGND VPWR VPWR sky130_fd_sc_hd__decap_8
X_432_ _110_ VGND VGND VPWR VPWR _111_ sky130_fd_sc_hd__inv_2
XFILLER_13_177 VGND VGND VPWR VPWR sky130_fd_sc_hd__decap_3
XFILLER_13_111 VGND VGND VPWR VPWR sky130_fd_sc_hd__fill_1
X_501_ net6 _103_ _104_ net7 VGND VGND VPWR VPWR _180_ sky130_fd_sc_hd__o31a_1
XFILLER_9_159 VGND VGND VPWR VPWR sky130_fd_sc_hd__fill_2
X_415_ net42 VGND VGND VPWR VPWR _033_ sky130_fd_sc_hd__inv_2
XFILLER_2_165 VPWR VGND VPWR VGND sky130_ef_sc_hd__decap_12
XFILLER_0_57 VGND VGND VPWR VPWR sky130_fd_sc_hd__decap_3
XFILLER_15_6 VGND VGND VPWR VPWR sky130_fd_sc_hd__decap_6
X_680_ _087_ counter\[17\] VGND VGND VPWR VPWR _327_ sky130_fd_sc_hd__and2_1
X_663_ _305_ _306_ _308_ _309_ VGND VGND VPWR VPWR _310_ sky130_fd_sc_hd__and4bb_1
X_732_ _091_ counter\[30\] _306_ _308_ VGND VGND VPWR VPWR _379_ sky130_fd_sc_hd__o22ai_1
X_801_ clknet_2_3__leaf_clk _020_ _062_ VGND VGND VPWR VPWR counter\[28\] sky130_fd_sc_hd__dfrtp_1
X_594_ counter\[10\] _261_ VGND VGND VPWR VPWR _263_ sky130_fd_sc_hd__or2_1
XPHY_EDGE_ROW_16_Left_48 VGND VGND VPWR VPWR sky130_fd_sc_hd__decap_3
XFILLER_13_3 VGND VGND VPWR VPWR sky130_fd_sc_hd__fill_1
XFILLER_6_56 VGND VGND VPWR VPWR sky130_fd_sc_hd__decap_8
XTAP_TAPCELL_ROW_27_148 VGND VPWR sky130_fd_sc_hd__tapvpwrvgnd_1
XFILLER_25_153 VGND VGND VPWR VPWR sky130_fd_sc_hd__fill_1
XFILLER_15_98 VGND VGND VPWR VPWR sky130_fd_sc_hd__fill_1
XFILLER_31_97 VGND VGND VPWR VPWR sky130_fd_sc_hd__decap_8
X_646_ counter\[27\] _295_ VGND VGND VPWR VPWR _298_ sky130_fd_sc_hd__nand2_1
X_577_ counter\[5\] counter\[4\] _247_ VGND VGND VPWR VPWR _251_ sky130_fd_sc_hd__and3_1
XFILLER_16_153 VGND VGND VPWR VPWR sky130_fd_sc_hd__decap_8
X_715_ counter\[15\] _089_ VGND VGND VPWR VPWR _362_ sky130_fd_sc_hd__nor2_1
XFILLER_26_97 VGND VGND VPWR VPWR sky130_fd_sc_hd__fill_2
X_431_ net15 net14 _108_ _109_ VGND VGND VPWR VPWR _110_ sky130_fd_sc_hd__or4_2
XFILLER_3_35 VGND VGND VPWR VPWR sky130_fd_sc_hd__fill_2
XFILLER_3_57 VGND VGND VPWR VPWR sky130_fd_sc_hd__fill_2
X_500_ _171_ _178_ VGND VGND VPWR VPWR _179_ sky130_fd_sc_hd__nor2_1
X_629_ net36 _285_ _286_ VGND VGND VPWR VPWR _013_ sky130_fd_sc_hd__and3_1
XPHY_EDGE_ROW_19_Left_51 VGND VGND VPWR VPWR sky130_fd_sc_hd__decap_3
XFILLER_12_99 VGND VGND VPWR VPWR sky130_fd_sc_hd__fill_1
XFILLER_12_22 VGND VGND VPWR VPWR sky130_fd_sc_hd__fill_1
X_414_ counter\[26\] VGND VGND VPWR VPWR _094_ sky130_fd_sc_hd__inv_2
XFILLER_5_152 VGND VGND VPWR VPWR sky130_fd_sc_hd__fill_1
XPHY_EDGE_ROW_21_Right_21 VGND VGND VPWR VPWR sky130_fd_sc_hd__decap_3
XPHY_EDGE_ROW_12_Right_12 VGND VGND VPWR VPWR sky130_fd_sc_hd__decap_3
XPHY_EDGE_ROW_4_Left_36 VGND VGND VPWR VPWR sky130_fd_sc_hd__decap_3
XPHY_EDGE_ROW_30_Right_30 VGND VGND VPWR VPWR sky130_fd_sc_hd__decap_3
XFILLER_2_177 VPWR VGND VPWR VGND sky130_ef_sc_hd__decap_12
XFILLER_18_10 VGND VGND VPWR VPWR sky130_fd_sc_hd__fill_1
XFILLER_29_31 VGND VGND VPWR VPWR sky130_fd_sc_hd__fill_1
X_662_ _091_ counter\[30\] _093_ net21 _307_ VGND VGND VPWR VPWR _309_ sky130_fd_sc_hd__o221a_1
X_800_ clknet_2_3__leaf_clk _019_ _061_ VGND VGND VPWR VPWR counter\[27\] sky130_fd_sc_hd__dfrtp_2
X_731_ _313_ _314_ _311_ VGND VGND VPWR VPWR _378_ sky130_fd_sc_hd__o21bai_1
X_593_ counter\[7\] counter\[10\] _253_ _260_ VGND VGND VPWR VPWR _262_ sky130_fd_sc_hd__and4_1
XTAP_TAPCELL_ROW_27_149 VGND VPWR sky130_fd_sc_hd__tapvpwrvgnd_1
XFILLER_25_143 VGND VGND VPWR VPWR sky130_fd_sc_hd__fill_1
XPHY_EDGE_ROW_6_Right_6 VGND VGND VPWR VPWR sky130_fd_sc_hd__decap_3
XFILLER_31_113 VPWR VGND VPWR VGND sky130_ef_sc_hd__decap_12
XFILLER_31_76 VGND VGND VPWR VPWR sky130_fd_sc_hd__decap_8
X_645_ counter\[27\] _295_ VGND VGND VPWR VPWR _297_ sky130_fd_sc_hd__or2_1
X_576_ net54 _249_ _250_ VGND VGND VPWR VPWR _026_ sky130_fd_sc_hd__and3_1
X_714_ net4 counter\[11\] VGND VGND VPWR VPWR _361_ sky130_fd_sc_hd__and2b_1
X_430_ net10 net9 VGND VGND VPWR VPWR _109_ sky130_fd_sc_hd__or2_1
X_628_ counter\[21\] _283_ VGND VGND VPWR VPWR _286_ sky130_fd_sc_hd__nand2_1
X_559_ counter\[19\] _167_ _169_ counter\[18\] _225_ VGND VGND VPWR VPWR _238_ sky130_fd_sc_hd__a221o_1
XFILLER_12_56 VGND VGND VPWR VPWR sky130_fd_sc_hd__decap_8
X_413_ counter\[27\] VGND VGND VPWR VPWR _093_ sky130_fd_sc_hd__inv_2
XTAP_TAPCELL_ROW_11_100 VGND VPWR sky130_fd_sc_hd__tapvpwrvgnd_1
XPHY_EDGE_ROW_20_Left_52 VGND VGND VPWR VPWR sky130_fd_sc_hd__decap_3
XFILLER_23_88 VGND VGND VPWR VPWR sky130_fd_sc_hd__decap_4
XFILLER_2_189 VGND VGND VPWR VPWR sky130_fd_sc_hd__fill_1
XFILLER_0_15 VPWR VGND VPWR VGND sky130_ef_sc_hd__decap_12
XFILLER_3_3 VPWR VGND VPWR VGND sky130_ef_sc_hd__decap_12
XFILLER_9_57 VGND VGND VPWR VPWR sky130_fd_sc_hd__decap_3
XFILLER_18_22 VGND VGND VPWR VPWR sky130_fd_sc_hd__fill_1
XFILLER_20_45 VGND VGND VPWR VPWR sky130_fd_sc_hd__decap_3
XFILLER_20_12 VGND VGND VPWR VPWR sky130_fd_sc_hd__fill_1
X_661_ _090_ counter\[29\] counter\[28\] _078_ VGND VGND VPWR VPWR _308_ sky130_fd_sc_hd__o22a_1
X_730_ _332_ _376_ _316_ VGND VGND VPWR VPWR _377_ sky130_fd_sc_hd__o21a_1
X_592_ _261_ net35 _259_ VGND VGND VPWR VPWR _031_ sky130_fd_sc_hd__and3b_1
XFILLER_19_130 VGND VGND VPWR VPWR sky130_fd_sc_hd__decap_6
Xrebuffer19 counter\[8\] VGND VGND VPWR VPWR net62 sky130_fd_sc_hd__dlygate4sd1_1
X_644_ _295_ _296_ net38 VGND VGND VPWR VPWR _018_ sky130_fd_sc_hd__and3b_1
X_575_ counter\[4\] _247_ VGND VGND VPWR VPWR _250_ sky130_fd_sc_hd__or2_1
XFILLER_15_89 VGND VGND VPWR VPWR sky130_fd_sc_hd__fill_2
XFILLER_15_78 VGND VGND VPWR VPWR sky130_fd_sc_hd__decap_4
X_713_ net3 _076_ _077_ net2 _359_ VGND VGND VPWR VPWR _360_ sky130_fd_sc_hd__o221a_1
XFILLER_31_125 VGND VGND VPWR VPWR sky130_fd_sc_hd__decap_4
XFILLER_13_169 VGND VGND VPWR VPWR sky130_fd_sc_hd__decap_8
XFILLER_7_90 VGND VGND VPWR VPWR sky130_fd_sc_hd__decap_4
X_627_ counter\[21\] _283_ VGND VGND VPWR VPWR _285_ sky130_fd_sc_hd__or2_1
XFILLER_3_15 VPWR VGND VPWR VGND sky130_ef_sc_hd__decap_12
X_558_ _224_ _233_ _234_ _236_ VGND VGND VPWR VPWR _237_ sky130_fd_sc_hd__a31oi_1
X_489_ net9 net8 _107_ VGND VGND VPWR VPWR _168_ sky130_fd_sc_hd__or3_4
X_412_ counter\[30\] VGND VGND VPWR VPWR _092_ sky130_fd_sc_hd__inv_2
XTAP_TAPCELL_ROW_11_101 VGND VPWR sky130_fd_sc_hd__tapvpwrvgnd_1
XFILLER_0_27 VGND VGND VPWR VPWR sky130_fd_sc_hd__fill_1
XFILLER_18_56 VGND VGND VPWR VPWR sky130_fd_sc_hd__fill_2
X_660_ _091_ counter\[30\] counter\[31\] VGND VGND VPWR VPWR _307_ sky130_fd_sc_hd__a21oi_1
XFILLER_29_55 VGND VGND VPWR VPWR sky130_fd_sc_hd__fill_1
X_591_ counter\[7\] _253_ _260_ VGND VGND VPWR VPWR _261_ sky130_fd_sc_hd__and3_1
XFILLER_6_15 VPWR VGND VPWR VGND sky130_ef_sc_hd__decap_12
XFILLER_20_7 VGND VGND VPWR VPWR sky130_fd_sc_hd__fill_2
X_789_ clknet_2_1__leaf_clk _007_ _050_ VGND VGND VPWR VPWR counter\[16\] sky130_fd_sc_hd__dfrtp_2
XFILLER_25_189 VGND VGND VPWR VPWR sky130_fd_sc_hd__fill_1
XFILLER_25_167 VGND VGND VPWR VPWR sky130_fd_sc_hd__fill_1
Xoutput34 net34 VGND VGND VPWR VPWR out sky130_fd_sc_hd__buf_2
X_712_ counter\[11\] net4 VGND VGND VPWR VPWR _359_ sky130_fd_sc_hd__nand2b_1
X_574_ counter\[4\] _247_ VGND VGND VPWR VPWR _249_ sky130_fd_sc_hd__nand2_1
X_643_ counter\[26\] _294_ VGND VGND VPWR VPWR _296_ sky130_fd_sc_hd__or2_1
XFILLER_30_170 VPWR VGND VPWR VGND sky130_ef_sc_hd__decap_12
XTAP_TAPCELL_ROW_14_110 VGND VPWR sky130_fd_sc_hd__tapvpwrvgnd_1
XFILLER_3_27 VGND VGND VPWR VPWR sky130_fd_sc_hd__decap_8
X_557_ counter\[15\] _181_ _235_ VGND VGND VPWR VPWR _236_ sky130_fd_sc_hd__o21a_1
X_488_ net11 _152_ VGND VGND VPWR VPWR _167_ sky130_fd_sc_hd__xnor2_2
X_626_ _283_ _284_ net36 VGND VGND VPWR VPWR _012_ sky130_fd_sc_hd__and3b_1
XFILLER_12_36 VGND VGND VPWR VPWR sky130_fd_sc_hd__decap_3
XFILLER_8_130 VGND VGND VPWR VPWR sky130_fd_sc_hd__fill_1
XFILLER_8_141 VPWR VGND VPWR VGND sky130_ef_sc_hd__decap_12
X_411_ net25 VGND VGND VPWR VPWR _091_ sky130_fd_sc_hd__inv_2
XTAP_TAPCELL_ROW_11_102 VGND VPWR sky130_fd_sc_hd__tapvpwrvgnd_1
XFILLER_5_111 VGND VGND VPWR VPWR sky130_fd_sc_hd__fill_1
X_609_ counter\[15\] counter\[14\] _269_ VGND VGND VPWR VPWR _273_ sky130_fd_sc_hd__and3_1
XFILLER_5_166 VGND VGND VPWR VPWR sky130_fd_sc_hd__fill_2
XFILLER_2_136 VGND VGND VPWR VPWR sky130_fd_sc_hd__fill_1
XFILLER_4_92 VPWR VGND VPWR VGND sky130_ef_sc_hd__decap_12
XFILLER_9_15 VGND VGND VPWR VPWR sky130_fd_sc_hd__fill_1
XFILLER_9_48 VGND VGND VPWR VPWR sky130_fd_sc_hd__decap_8
Xclkload0 clknet_2_0__leaf_clk VGND VGND VPWR VPWR clkload0/Y sky130_fd_sc_hd__bufinv_16
X_590_ counter\[9\] counter\[8\] VGND VGND VPWR VPWR _260_ sky130_fd_sc_hd__and2_1
XFILLER_19_176 VGND VGND VPWR VPWR sky130_fd_sc_hd__fill_1
X_788_ clknet_2_1__leaf_clk _006_ _049_ VGND VGND VPWR VPWR counter\[15\] sky130_fd_sc_hd__dfrtp_2
XFILLER_6_27 VGND VGND VPWR VPWR sky130_fd_sc_hd__fill_1
XFILLER_25_135 VGND VGND VPWR VPWR sky130_fd_sc_hd__decap_8
XFILLER_25_124 VGND VGND VPWR VPWR sky130_fd_sc_hd__fill_2
XFILLER_31_105 VGND VGND VPWR VPWR sky130_fd_sc_hd__decap_3
XPHY_EDGE_ROW_28_Right_28 VGND VGND VPWR VPWR sky130_fd_sc_hd__decap_3
X_573_ _247_ _248_ net37 VGND VGND VPWR VPWR _025_ sky130_fd_sc_hd__and3b_1
X_642_ counter\[26\] counter\[25\] counter\[24\] _290_ VGND VGND VPWR VPWR _295_ sky130_fd_sc_hd__and4_1
XFILLER_21_90 VGND VGND VPWR VPWR sky130_fd_sc_hd__decap_6
XPHY_EDGE_ROW_19_Right_19 VGND VGND VPWR VPWR sky130_fd_sc_hd__decap_3
XFILLER_16_179 VGND VGND VPWR VPWR sky130_fd_sc_hd__fill_1
X_711_ net5 _075_ VGND VGND VPWR VPWR _358_ sky130_fd_sc_hd__and2_1
XFILLER_30_182 VGND VGND VPWR VPWR sky130_fd_sc_hd__decap_8
XFILLER_26_35 VGND VGND VPWR VPWR sky130_fd_sc_hd__fill_1
XFILLER_13_149 VGND VGND VPWR VPWR sky130_fd_sc_hd__fill_1
X_625_ counter\[20\] _282_ VGND VGND VPWR VPWR _284_ sky130_fd_sc_hd__or2_1
X_487_ counter\[20\] _164_ _165_ VGND VGND VPWR VPWR _166_ sky130_fd_sc_hd__o21ai_1
XTAP_TAPCELL_ROW_14_111 VGND VPWR sky130_fd_sc_hd__tapvpwrvgnd_1
X_556_ _186_ _189_ _183_ VGND VGND VPWR VPWR _235_ sky130_fd_sc_hd__a21o_1
XFILLER_8_153 VPWR VGND VPWR VGND sky130_ef_sc_hd__decap_12
X_410_ net24 VGND VGND VPWR VPWR _090_ sky130_fd_sc_hd__inv_2
X_608_ counter\[14\] _269_ counter\[15\] VGND VGND VPWR VPWR _272_ sky130_fd_sc_hd__a21o_1
XFILLER_5_189 VGND VGND VPWR VPWR sky130_fd_sc_hd__fill_1
X_539_ counter\[11\] _191_ _192_ counter\[10\] VGND VGND VPWR VPWR _218_ sky130_fd_sc_hd__o22a_1
XFILLER_23_47 VGND VGND VPWR VPWR sky130_fd_sc_hd__decap_4
XPHY_EDGE_ROW_24_Left_56 VGND VGND VPWR VPWR sky130_fd_sc_hd__decap_3
XFILLER_0_29 VPWR VGND VPWR VGND sky130_ef_sc_hd__decap_12
XFILLER_1_181 VGND VGND VPWR VPWR sky130_fd_sc_hd__decap_8
XFILLER_1_3 VPWR VGND VPWR VGND sky130_ef_sc_hd__decap_12
Xclkload1 clknet_2_1__leaf_clk VGND VGND VPWR VPWR clkload1/X sky130_fd_sc_hd__clkbuf_4
XFILLER_29_13 VPWR VGND VPWR VGND sky130_ef_sc_hd__decap_12
XFILLER_28_144 VGND VGND VPWR VPWR sky130_fd_sc_hd__decap_6
XFILLER_20_37 VGND VGND VPWR VPWR sky130_fd_sc_hd__decap_8
XFILLER_19_111 VGND VGND VPWR VPWR sky130_fd_sc_hd__fill_1
X_787_ clknet_2_1__leaf_clk _005_ _048_ VGND VGND VPWR VPWR counter\[14\] sky130_fd_sc_hd__dfrtp_2
XFILLER_25_169 VPWR VGND VPWR VGND sky130_ef_sc_hd__decap_12
XPHY_EDGE_ROW_11_Left_43 VGND VGND VPWR VPWR sky130_fd_sc_hd__decap_3
XFILLER_31_139 VGND VGND VPWR VPWR sky130_fd_sc_hd__fill_1
X_572_ counter\[3\] _245_ VGND VGND VPWR VPWR _248_ sky130_fd_sc_hd__or2_1
X_641_ _294_ net38 _293_ VGND VGND VPWR VPWR _017_ sky130_fd_sc_hd__and3b_1
X_710_ _356_ VGND VGND VPWR VPWR _357_ sky130_fd_sc_hd__inv_2
XFILLER_22_139 VGND VGND VPWR VPWR sky130_fd_sc_hd__fill_1
XTAP_TAPCELL_ROW_17_120 VGND VPWR sky130_fd_sc_hd__tapvpwrvgnd_1
XFILLER_7_60 VGND VGND VPWR VPWR sky130_fd_sc_hd__fill_2
XFILLER_21_150 VGND VGND VPWR VPWR sky130_fd_sc_hd__fill_2
X_486_ counter\[21\] _160_ _164_ counter\[20\] VGND VGND VPWR VPWR _165_ sky130_fd_sc_hd__a22oi_1
X_555_ counter\[15\] _181_ _188_ counter\[12\] _186_ VGND VGND VPWR VPWR _234_ sky130_fd_sc_hd__o221a_1
XFILLER_8_165 VGND VGND VPWR VPWR sky130_fd_sc_hd__decap_4
X_624_ counter\[20\] counter\[19\] counter\[18\] _277_ VGND VGND VPWR VPWR _283_ sky130_fd_sc_hd__and4_1
XFILLER_27_90 VGND VGND VPWR VPWR sky130_fd_sc_hd__fill_1
X_538_ counter\[7\] _198_ _214_ counter\[6\] VGND VGND VPWR VPWR _217_ sky130_fd_sc_hd__a22o_1
X_607_ net35 _270_ _271_ VGND VGND VPWR VPWR _005_ sky130_fd_sc_hd__and3_1
XFILLER_5_113 VGND VGND VPWR VPWR sky130_fd_sc_hd__decap_4
X_469_ counter\[27\] _116_ _140_ VGND VGND VPWR VPWR _148_ sky130_fd_sc_hd__and3_1
XFILLER_13_81 VPWR VGND VPWR VGND sky130_ef_sc_hd__decap_12
Xclkload2 clknet_2_2__leaf_clk VGND VGND VPWR VPWR clkload2/X sky130_fd_sc_hd__clkbuf_8
XFILLER_18_48 VGND VGND VPWR VPWR sky130_fd_sc_hd__decap_8
XFILLER_27_3 VGND VGND VPWR VPWR sky130_fd_sc_hd__decap_3
XFILLER_29_25 VGND VGND VPWR VPWR sky130_fd_sc_hd__decap_6
XFILLER_1_51 VGND VGND VPWR VPWR sky130_fd_sc_hd__decap_4
XFILLER_19_189 VGND VGND VPWR VPWR sky130_fd_sc_hd__fill_1
X_786_ clknet_2_0__leaf_clk _004_ _047_ VGND VGND VPWR VPWR counter\[13\] sky130_fd_sc_hd__dfrtp_1
XFILLER_6_29 VGND VGND VPWR VPWR sky130_fd_sc_hd__decap_8
XFILLER_31_15 VPWR VGND VPWR VGND sky130_ef_sc_hd__decap_12
X_571_ counter\[0\] counter\[1\] counter\[3\] counter\[2\] VGND VGND VPWR VPWR _247_
+ sky130_fd_sc_hd__and4_1
X_640_ counter\[25\] counter\[24\] _290_ VGND VGND VPWR VPWR _294_ sky130_fd_sc_hd__and3_1
XPHY_EDGE_ROW_1_Right_1 VGND VGND VPWR VPWR sky130_fd_sc_hd__decap_3
X_769_ net43 VGND VGND VPWR VPWR _063_ sky130_fd_sc_hd__inv_2
XFILLER_26_26 VGND VGND VPWR VPWR sky130_fd_sc_hd__fill_2
X_485_ _153_ _163_ VGND VGND VPWR VPWR _164_ sky130_fd_sc_hd__nor2_1
XFILLER_12_173 VGND VGND VPWR VPWR sky130_fd_sc_hd__fill_2
X_554_ _183_ _189_ VGND VGND VPWR VPWR _233_ sky130_fd_sc_hd__nor2_1
X_623_ _282_ net36 _281_ VGND VGND VPWR VPWR _010_ sky130_fd_sc_hd__and3b_1
XTAP_TAPCELL_ROW_20_127 VGND VPWR sky130_fd_sc_hd__tapvpwrvgnd_1
XFILLER_5_103 VGND VGND VPWR VPWR sky130_fd_sc_hd__decap_8
XFILLER_5_169 VPWR VGND VPWR VGND sky130_ef_sc_hd__decap_12
X_468_ _141_ _143_ _144_ VGND VGND VPWR VPWR _147_ sky130_fd_sc_hd__and3_1
X_399_ net21 VGND VGND VPWR VPWR _079_ sky130_fd_sc_hd__inv_2
X_537_ counter\[5\] _211_ _212_ _210_ _215_ VGND VGND VPWR VPWR _216_ sky130_fd_sc_hd__o221a_1
X_606_ counter\[14\] _269_ VGND VGND VPWR VPWR _271_ sky130_fd_sc_hd__or2_1
XFILLER_13_93 VGND VGND VPWR VPWR sky130_fd_sc_hd__decap_4
XTAP_TAPCELL_ROW_9_94 VGND VPWR sky130_fd_sc_hd__tapvpwrvgnd_1
XFILLER_19_113 VGND VGND VPWR VPWR sky130_fd_sc_hd__fill_2
XFILLER_10_83 VGND VGND VPWR VPWR sky130_fd_sc_hd__fill_1
X_785_ clknet_2_0__leaf_clk _003_ _046_ VGND VGND VPWR VPWR counter\[12\] sky130_fd_sc_hd__dfrtp_1
XFILLER_31_27 VGND VGND VPWR VPWR sky130_fd_sc_hd__fill_1
X_570_ _245_ _246_ net37 VGND VGND VPWR VPWR _022_ sky130_fd_sc_hd__and3b_1
XFILLER_25_116 VGND VGND VPWR VPWR sky130_fd_sc_hd__decap_8
XFILLER_15_39 VGND VGND VPWR VPWR sky130_fd_sc_hd__decap_4
X_699_ _067_ net23 VGND VGND VPWR VPWR _346_ sky130_fd_sc_hd__nand2_1
X_768_ net43 VGND VGND VPWR VPWR _062_ sky130_fd_sc_hd__inv_2
XFILLER_24_160 VGND VGND VPWR VPWR sky130_fd_sc_hd__decap_4
Xclkbuf_0_clk clk VGND VGND VPWR VPWR clknet_0_clk sky130_fd_sc_hd__clkbuf_16
XPHY_EDGE_ROW_24_Right_24 VGND VGND VPWR VPWR sky130_fd_sc_hd__decap_3
XTAP_TAPCELL_ROW_23_136 VGND VPWR sky130_fd_sc_hd__tapvpwrvgnd_1
XFILLER_21_174 VGND VGND VPWR VPWR sky130_fd_sc_hd__decap_3
XPHY_EDGE_ROW_15_Right_15 VGND VGND VPWR VPWR sky130_fd_sc_hd__decap_3
X_553_ _148_ _231_ VGND VGND VPWR VPWR _232_ sky130_fd_sc_hd__or2_1
XFILLER_12_141 VPWR VGND VPWR VGND sky130_ef_sc_hd__decap_12
X_484_ net11 net8 net45 _109_ net13 VGND VGND VPWR VPWR _163_ sky130_fd_sc_hd__o41a_1
X_622_ counter\[19\] counter\[18\] _277_ VGND VGND VPWR VPWR _282_ sky130_fd_sc_hd__and3_1
XFILLER_8_134 VGND VGND VPWR VPWR sky130_fd_sc_hd__decap_6
XFILLER_8_189 VGND VGND VPWR VPWR sky130_fd_sc_hd__fill_1
XTAP_TAPCELL_ROW_20_128 VGND VPWR sky130_fd_sc_hd__tapvpwrvgnd_1
XFILLER_5_148 VGND VGND VPWR VPWR sky130_fd_sc_hd__fill_1
X_398_ net22 VGND VGND VPWR VPWR _078_ sky130_fd_sc_hd__inv_2
X_467_ _141_ _143_ _144_ _145_ VGND VGND VPWR VPWR _146_ sky130_fd_sc_hd__and4_1
X_536_ counter\[6\] _214_ VGND VGND VPWR VPWR _215_ sky130_fd_sc_hd__or2_1
X_605_ counter\[14\] _269_ VGND VGND VPWR VPWR _270_ sky130_fd_sc_hd__nand2_1
Xfanout40 net33 VGND VGND VPWR VPWR net40 sky130_fd_sc_hd__buf_4
XTAP_TAPCELL_ROW_0_64 VGND VPWR sky130_fd_sc_hd__tapvpwrvgnd_1
XTAP_TAPCELL_ROW_9_95 VGND VPWR sky130_fd_sc_hd__tapvpwrvgnd_1
X_519_ _071_ _099_ VGND VGND VPWR VPWR _198_ sky130_fd_sc_hd__xnor2_1
XFILLER_20_29 VGND VGND VPWR VPWR sky130_fd_sc_hd__fill_1
XFILLER_28_158 VPWR VGND VPWR VGND sky130_ef_sc_hd__decap_12
XFILLER_28_114 VPWR VGND VPWR VGND sky130_ef_sc_hd__decap_12
XFILLER_19_136 VGND VGND VPWR VPWR sky130_fd_sc_hd__fill_1
X_784_ clknet_2_0__leaf_clk _002_ _045_ VGND VGND VPWR VPWR counter\[11\] sky130_fd_sc_hd__dfrtp_2
XTAP_TAPCELL_ROW_6_85 VGND VPWR sky130_fd_sc_hd__tapvpwrvgnd_1
XFILLER_18_180 VGND VGND VPWR VPWR sky130_fd_sc_hd__decap_6
XTAP_TAPCELL_ROW_26_145 VGND VPWR sky130_fd_sc_hd__tapvpwrvgnd_1
X_767_ net43 VGND VGND VPWR VPWR _061_ sky130_fd_sc_hd__inv_2
XFILLER_21_72 VPWR VGND VPWR VGND sky130_ef_sc_hd__decap_12
XFILLER_16_117 VPWR VGND VPWR VGND sky130_ef_sc_hd__decap_12
X_698_ _342_ _343_ _344_ VGND VGND VPWR VPWR _345_ sky130_fd_sc_hd__or3_1
XPHY_EDGE_ROW_15_Left_47 VGND VGND VPWR VPWR sky130_fd_sc_hd__decap_3
X_552_ _134_ _124_ _147_ _230_ VGND VGND VPWR VPWR _231_ sky130_fd_sc_hd__nand4_2
XTAP_TAPCELL_ROW_23_137 VGND VPWR sky130_fd_sc_hd__tapvpwrvgnd_1
XFILLER_21_164 VGND VGND VPWR VPWR sky130_fd_sc_hd__decap_4
XFILLER_21_142 VGND VGND VPWR VPWR sky130_fd_sc_hd__decap_8
XFILLER_16_83 VGND VGND VPWR VPWR sky130_fd_sc_hd__fill_1
X_483_ counter\[21\] _160_ _161_ _159_ VGND VGND VPWR VPWR _162_ sky130_fd_sc_hd__o211ai_1
XFILLER_12_153 VPWR VGND VPWR VGND sky130_ef_sc_hd__decap_12
XFILLER_12_120 VPWR VGND VPWR VGND sky130_ef_sc_hd__decap_12
X_621_ counter\[19\] _279_ VGND VGND VPWR VPWR _281_ sky130_fd_sc_hd__or2_1
XTAP_TAPCELL_ROW_20_129 VGND VPWR sky130_fd_sc_hd__tapvpwrvgnd_1
XFILLER_8_124 VGND VGND VPWR VPWR sky130_fd_sc_hd__decap_6
X_466_ counter\[25\] _137_ VGND VGND VPWR VPWR _145_ sky130_fd_sc_hd__or2_1
X_535_ _099_ _213_ VGND VGND VPWR VPWR _214_ sky130_fd_sc_hd__and2_1
X_604_ _269_ net35 _268_ VGND VGND VPWR VPWR _004_ sky130_fd_sc_hd__and3b_1
Xclkbuf_2_0__f_clk clknet_0_clk VGND VGND VPWR VPWR clknet_2_0__leaf_clk sky130_fd_sc_hd__clkbuf_16
X_397_ counter\[9\] VGND VGND VPWR VPWR _077_ sky130_fd_sc_hd__inv_2
XPHY_EDGE_ROW_18_Left_50 VGND VGND VPWR VPWR sky130_fd_sc_hd__decap_3
XFILLER_2_119 VGND VGND VPWR VPWR sky130_fd_sc_hd__fill_2