*SPEF "ieee 1481-1999"
*DESIGN "clk_int_div"
*DATE "17:08:38 Friday November 01, 2024"
*VENDOR "The OpenROAD Project"
*PROGRAM "OpenROAD"
*VERSION "edf00dff99f6c40d67a30c0e22a8191c5d2ed9d6"
*DESIGN_FLOW "NAME_SCOPE LOCAL" "PIN_CAP NONE"
*DIVIDER /
*DELIMITER :
*BUS_DELIMITER []
*T_UNIT 1 NS
*C_UNIT 1 PF
*R_UNIT 1 OHM
*L_UNIT 1 HENRY

*NAME_MAP
*3 clk_i
*4 clk_o
*5 cycl_count_o[0]
*6 cycl_count_o[1]
*7 cycl_count_o[2]
*8 cycl_count_o[3]
*9 cycl_count_o[4]
*10 cycl_count_o[5]
*11 cycl_count_o[6]
*12 cycl_count_o[7]
*13 div_i[0]
*14 div_i[1]
*15 div_i[2]
*16 div_i[3]
*17 div_i[4]
*18 div_i[5]
*19 div_i[6]
*20 div_i[7]
*21 div_ready_o
*22 div_valid_i
*23 en_i
*24 rst_ni
*25 test_mode_en_i
*26 _000_
*27 _001_
*28 _002_
*29 _003_
*30 _004_
*31 _005_
*32 _006_
*33 _007_
*34 _008_
*35 _009_
*36 _010_
*37 _011_
*38 _012_
*39 _013_
*40 _014_
*41 _015_
*42 _016_
*43 _017_
*44 _018_
*45 _019_
*46 _020_
*47 _021_
*48 _022_
*49 _023_
*50 _024_
*51 _025_
*52 _026_
*53 _027_
*54 _028_
*55 _029_
*56 _030_
*57 _031_
*58 _032_
*59 _033_
*60 _034_
*61 _035_
*62 _036_
*63 _037_
*64 _038_
*65 _039_
*66 _040_
*67 _041_
*68 _042_
*69 _043_
*70 _044_
*71 _045_
*72 _046_
*73 _047_
*74 _048_
*75 _049_
*76 _050_
*77 _051_
*78 _052_
*79 _053_
*80 _054_
*81 _055_
*82 _056_
*83 _057_
*84 _058_
*85 _059_
*86 _060_
*87 _061_
*88 _062_
*89 _063_
*90 _064_
*91 _065_
*92 _066_
*93 _067_
*94 _068_
*95 _069_
*96 _070_
*97 _071_
*98 _072_
*99 _073_
*100 _074_
*101 _075_
*102 _076_
*103 _077_
*104 _078_
*105 _079_
*106 _080_
*107 _081_
*108 _082_
*109 _083_
*110 _084_
*111 _085_
*112 _086_
*113 _087_
*114 _088_
*115 _089_
*116 _090_
*117 _091_
*118 _092_
*119 _093_
*120 _094_
*121 _095_
*122 _096_
*123 _097_
*124 _098_
*125 _099_
*126 _100_
*127 _101_
*128 _102_
*129 _103_
*130 _104_
*131 _105_
*132 _106_
*133 _107_
*134 _108_
*135 _109_
*136 _110_
*137 _111_
*138 _112_
*139 _113_
*140 _114_
*141 _115_
*142 _116_
*143 _117_
*144 _118_
*145 _119_
*146 _120_
*147 _121_
*148 _122_
*149 _123_
*150 _124_
*151 _125_
*152 _126_
*153 _127_
*154 _128_
*155 _129_
*156 _130_
*157 _131_
*158 _132_
*159 _133_
*160 _134_
*161 _135_
*162 _136_
*163 _137_
*164 _138_
*165 _139_
*166 clk_div_bypass_en_q
*167 clk_gate_state_q\[0\]
*168 clk_gate_state_q\[1\]
*169 div_q\[0\]
*170 div_q\[1\]
*171 div_q\[2\]
*172 div_q\[3\]
*173 div_q\[4\]
*174 div_q\[5\]
*175 div_q\[6\]
*176 div_q\[7\]
*177 even_clk
*178 gate_en_d
*179 gate_en_q
*180 gate_is_open_q
*181 i_clk_gate\.clk_en
*182 i_clk_gate\.en_i
*183 i_clk_mux\.clk_sel_i
*184 i_odd_clk_xor\.clk1_i
*185 net1
*186 net10
*187 net11
*188 net12
*189 net13
*190 net14
*191 net15
*192 net16
*193 net17
*194 net18
*195 net19
*196 net2
*197 net20
*198 net21
*199 net22
*200 net23
*201 net24
*202 net25
*203 net26
*204 net27
*205 net28
*206 net29
*207 net3
*208 net30
*209 net31
*210 net32
*211 net33
*212 net34
*213 net35
*214 net36
*215 net37
*216 net38
*217 net4
*218 net5
*219 net6
*220 net7
*221 net8
*222 net9
*223 FILLER_0_109
*224 FILLER_0_113
*225 FILLER_0_125
*226 FILLER_0_133
*227 FILLER_0_15
*228 FILLER_0_27
*229 FILLER_0_29
*230 FILLER_0_3
*231 FILLER_0_41
*232 FILLER_0_53
*233 FILLER_0_57
*234 FILLER_0_65
*235 FILLER_0_70
*236 FILLER_0_77
*237 FILLER_0_85
*238 FILLER_0_97
*239 FILLER_10_103
*240 FILLER_10_3
*241 FILLER_10_41
*242 FILLER_10_64
*243 FILLER_10_76
*244 FILLER_10_85
*245 FILLER_10_91
*246 FILLER_11_102
*247 FILLER_11_106
*248 FILLER_11_134
*249 FILLER_11_34
*250 FILLER_11_46
*251 FILLER_11_50
*252 FILLER_11_61
*253 FILLER_11_73
*254 FILLER_11_90
*255 FILLER_12_101
*256 FILLER_12_113
*257 FILLER_12_128
*258 FILLER_12_26
*259 FILLER_12_6
*260 FILLER_12_69
*261 FILLER_12_73
*262 FILLER_13_107
*263 FILLER_13_111
*264 FILLER_13_129
*265 FILLER_13_43
*266 FILLER_13_49
*267 FILLER_13_65
*268 FILLER_13_73
*269 FILLER_14_109
*270 FILLER_14_29
*271 FILLER_14_3
*272 FILLER_14_41
*273 FILLER_14_53
*274 FILLER_14_65
*275 FILLER_14_77
*276 FILLER_14_92
*277 FILLER_14_97
*278 FILLER_15_102
*279 FILLER_15_108
*280 FILLER_15_127
*281 FILLER_15_15
*282 FILLER_15_27
*283 FILLER_15_3
*284 FILLER_15_39
*285 FILLER_15_47
*286 FILLER_15_57
*287 FILLER_15_73
*288 FILLER_15_85
*289 FILLER_15_90
*290 FILLER_16_104
*291 FILLER_16_11
*292 FILLER_16_17
*293 FILLER_16_25
*294 FILLER_16_3
*295 FILLER_16_35
*296 FILLER_16_43
*297 FILLER_16_70
*298 FILLER_16_82
*299 FILLER_16_92
*300 FILLER_17_10
*301 FILLER_17_106
*302 FILLER_17_113
*303 FILLER_17_125
*304 FILLER_17_133
*305 FILLER_17_20
*306 FILLER_17_41
*307 FILLER_17_49
*308 FILLER_17_53
*309 FILLER_17_60
*310 FILLER_17_74
*311 FILLER_17_82
*312 FILLER_18_104
*313 FILLER_18_116
*314 FILLER_18_128
*315 FILLER_18_134
*316 FILLER_18_27
*317 FILLER_18_42
*318 FILLER_18_76
*319 FILLER_18_85
*320 FILLER_18_92
*321 FILLER_18_96
*322 FILLER_19_101
*323 FILLER_19_109
*324 FILLER_19_133
*325 FILLER_19_3
*326 FILLER_19_46
*327 FILLER_19_54
*328 FILLER_19_76
*329 FILLER_1_108
*330 FILLER_1_11
*331 FILLER_1_113
*332 FILLER_1_125
*333 FILLER_1_133
*334 FILLER_1_3
*335 FILLER_1_34
*336 FILLER_1_46
*337 FILLER_1_54
*338 FILLER_1_71
*339 FILLER_1_77
*340 FILLER_1_98
*341 FILLER_20_105
*342 FILLER_20_117
*343 FILLER_20_129
*344 FILLER_20_18
*345 FILLER_20_26
*346 FILLER_20_33
*347 FILLER_20_6
*348 FILLER_20_78
*349 FILLER_21_101
*350 FILLER_21_109
*351 FILLER_21_113
*352 FILLER_21_125
*353 FILLER_21_133
*354 FILLER_21_15
*355 FILLER_21_27
*356 FILLER_21_3
*357 FILLER_21_39
*358 FILLER_21_53
*359 FILLER_21_60
*360 FILLER_21_67
*361 FILLER_21_79
*362 FILLER_21_86
*363 FILLER_22_110
*364 FILLER_22_113
*365 FILLER_22_125
*366 FILLER_22_133
*367 FILLER_22_15
*368 FILLER_22_27
*369 FILLER_22_29
*370 FILLER_22_3
*371 FILLER_22_41
*372 FILLER_22_69
*373 FILLER_22_77
*374 FILLER_22_83
*375 FILLER_22_85
*376 FILLER_22_93
*377 FILLER_22_98
*378 FILLER_2_112
*379 FILLER_2_124
*380 FILLER_2_132
*381 FILLER_2_26
*382 FILLER_2_29
*383 FILLER_2_41
*384 FILLER_2_74
*385 FILLER_2_82
*386 FILLER_2_85
*387 FILLER_3_102
*388 FILLER_3_11
*389 FILLER_3_110
*390 FILLER_3_113
*391 FILLER_3_125
*392 FILLER_3_133
*393 FILLER_3_3
*394 FILLER_3_36
*395 FILLER_3_48
*396 FILLER_3_68
*397 FILLER_3_76
*398 FILLER_3_91
*399 FILLER_4_104
*400 FILLER_4_116
*401 FILLER_4_12
*402 FILLER_4_128
*403 FILLER_4_24
*404 FILLER_4_29
*405 FILLER_4_41
*406 FILLER_4_49
*407 FILLER_4_53
*408 FILLER_4_63
*409 FILLER_4_75
*410 FILLER_4_83
*411 FILLER_4_92
*412 FILLER_4_98
*413 FILLER_5_101
*414 FILLER_5_109
*415 FILLER_5_120
*416 FILLER_5_130
*417 FILLER_5_25
*418 FILLER_5_37
*419 FILLER_5_6
*420 FILLER_5_65
*421 FILLER_5_77
*422 FILLER_5_89
*423 FILLER_6_13
*424 FILLER_6_27
*425 FILLER_6_29
*426 FILLER_6_41
*427 FILLER_6_62
*428 FILLER_6_93
*429 FILLER_7_109
*430 FILLER_7_113
*431 FILLER_7_117
*432 FILLER_7_121
*433 FILLER_7_133
*434 FILLER_7_50
*435 FILLER_7_66
*436 FILLER_7_82
*437 FILLER_7_97
*438 FILLER_8_104
*439 FILLER_8_127
*440 FILLER_8_27
*441 FILLER_8_37
*442 FILLER_8_49
*443 FILLER_8_61
*444 FILLER_8_73
*445 FILLER_9_100
*446 FILLER_9_113
*447 FILLER_9_36
*448 FILLER_9_64
*449 FILLER_9_76
*450 PHY_EDGE_ROW_0_Left_23
*451 PHY_EDGE_ROW_0_Right_0
*452 PHY_EDGE_ROW_10_Left_33
*453 PHY_EDGE_ROW_10_Right_10
*454 PHY_EDGE_ROW_11_Left_34
*455 PHY_EDGE_ROW_11_Right_11
*456 PHY_EDGE_ROW_12_Left_35
*457 PHY_EDGE_ROW_12_Right_12
*458 PHY_EDGE_ROW_13_Left_36
*459 PHY_EDGE_ROW_13_Right_13
*460 PHY_EDGE_ROW_14_Left_37
*461 PHY_EDGE_ROW_14_Right_14
*462 PHY_EDGE_ROW_15_Left_38
*463 PHY_EDGE_ROW_15_Right_15
*464 PHY_EDGE_ROW_16_Left_39
*465 PHY_EDGE_ROW_16_Right_16
*466 PHY_EDGE_ROW_17_Left_40
*467 PHY_EDGE_ROW_17_Right_17
*468 PHY_EDGE_ROW_18_Left_41
*469 PHY_EDGE_ROW_18_Right_18
*470 PHY_EDGE_ROW_19_Left_42
*471 PHY_EDGE_ROW_19_Right_19
*472 PHY_EDGE_ROW_1_Left_24
*473 PHY_EDGE_ROW_1_Right_1
*474 PHY_EDGE_ROW_20_Left_43
*475 PHY_EDGE_ROW_20_Right_20
*476 PHY_EDGE_ROW_21_Left_44
*477 PHY_EDGE_ROW_21_Right_21
*478 PHY_EDGE_ROW_22_Left_45
*479 PHY_EDGE_ROW_22_Right_22
*480 PHY_EDGE_ROW_2_Left_25
*481 PHY_EDGE_ROW_2_Right_2
*482 PHY_EDGE_ROW_3_Left_26
*483 PHY_EDGE_ROW_3_Right_3
*484 PHY_EDGE_ROW_4_Left_27
*485 PHY_EDGE_ROW_4_Right_4
*486 PHY_EDGE_ROW_5_Left_28
*487 PHY_EDGE_ROW_5_Right_5
*488 PHY_EDGE_ROW_6_Left_29
*489 PHY_EDGE_ROW_6_Right_6
*490 PHY_EDGE_ROW_7_Left_30
*491 PHY_EDGE_ROW_7_Right_7
*492 PHY_EDGE_ROW_8_Left_31
*493 PHY_EDGE_ROW_8_Right_8
*494 PHY_EDGE_ROW_9_Left_32
*495 PHY_EDGE_ROW_9_Right_9
*496 TAP_TAPCELL_ROW_0_46
*497 TAP_TAPCELL_ROW_0_47
*498 TAP_TAPCELL_ROW_0_48
*499 TAP_TAPCELL_ROW_0_49
*500 TAP_TAPCELL_ROW_10_68
*501 TAP_TAPCELL_ROW_10_69
*502 TAP_TAPCELL_ROW_11_70
*503 TAP_TAPCELL_ROW_11_71
*504 TAP_TAPCELL_ROW_12_72
*505 TAP_TAPCELL_ROW_12_73
*506 TAP_TAPCELL_ROW_13_74
*507 TAP_TAPCELL_ROW_13_75
*508 TAP_TAPCELL_ROW_14_76
*509 TAP_TAPCELL_ROW_14_77
*510 TAP_TAPCELL_ROW_15_78
*511 TAP_TAPCELL_ROW_15_79
*512 TAP_TAPCELL_ROW_16_80
*513 TAP_TAPCELL_ROW_16_81
*514 TAP_TAPCELL_ROW_17_82
*515 TAP_TAPCELL_ROW_17_83
*516 TAP_TAPCELL_ROW_18_84
*517 TAP_TAPCELL_ROW_18_85
*518 TAP_TAPCELL_ROW_19_86
*519 TAP_TAPCELL_ROW_19_87
*520 TAP_TAPCELL_ROW_1_50
*521 TAP_TAPCELL_ROW_1_51
*522 TAP_TAPCELL_ROW_20_88
*523 TAP_TAPCELL_ROW_20_89
*524 TAP_TAPCELL_ROW_21_90
*525 TAP_TAPCELL_ROW_21_91
*526 TAP_TAPCELL_ROW_22_92
*527 TAP_TAPCELL_ROW_22_93
*528 TAP_TAPCELL_ROW_22_94
*529 TAP_TAPCELL_ROW_22_95
*530 TAP_TAPCELL_ROW_2_52
*531 TAP_TAPCELL_ROW_2_53
*532 TAP_TAPCELL_ROW_3_54
*533 TAP_TAPCELL_ROW_3_55
*534 TAP_TAPCELL_ROW_4_56
*535 TAP_TAPCELL_ROW_4_57
*536 TAP_TAPCELL_ROW_5_58
*537 TAP_TAPCELL_ROW_5_59
*538 TAP_TAPCELL_ROW_6_60
*539 TAP_TAPCELL_ROW_6_61
*540 TAP_TAPCELL_ROW_7_62
*541 TAP_TAPCELL_ROW_7_63
*542 TAP_TAPCELL_ROW_8_64
*543 TAP_TAPCELL_ROW_8_65
*544 TAP_TAPCELL_ROW_9_66
*545 TAP_TAPCELL_ROW_9_67
*546 _140_
*547 _141_
*548 _142_
*549 _143_
*550 _144_
*551 _145_
*552 _146_
*553 _147_
*554 _148_
*555 _149_
*556 _150_
*557 _151_
*558 _152_
*559 _153_
*560 _154_
*561 _155_
*562 _156_
*563 _157_
*564 _158_
*565 _159_
*566 _160_
*567 _161_
*568 _162_
*569 _163_
*570 _164_
*571 _165_
*572 _166_
*573 _167_
*574 _168_
*575 _169_
*576 _170_
*577 _171_
*578 _172_
*579 _173_
*580 _174_
*581 _175_
*582 _176_
*583 _177_
*584 _178_
*585 _179_
*586 _180_
*587 _181_
*588 _182_
*589 _183_
*590 _184_
*591 _185_
*592 _186_
*593 _187_
*594 _188_
*595 _189_
*596 _190_
*597 _191_
*598 _192_
*599 _193_
*600 _194_
*601 _195_
*602 _196_
*603 _197_
*604 _198_
*605 _199_
*606 _200_
*607 _201_
*608 _202_
*609 _203_
*610 _204_
*611 _205_
*612 _206_
*613 _207_
*614 _208_
*615 _209_
*616 _210_
*617 _211_
*618 _212_
*619 _213_
*620 _214_
*621 _215_
*622 _216_
*623 _217_
*624 _218_
*625 _219_
*626 _220_
*627 _221_
*628 _222_
*629 _223_
*630 _224_
*631 _225_
*632 _226_
*633 _227_
*634 _228_
*635 _229_
*636 _230_
*637 _231_
*638 _232_
*639 _233_
*640 _234_
*641 _235_
*642 _236_
*643 _237_
*644 _238_
*645 _239_
*646 _240_
*647 _241_
*648 _242_
*649 _243_
*650 _244_
*651 _245_
*652 _246_
*653 _247_
*654 _248_
*655 _249_
*656 _250_
*657 _251_
*658 _252_
*659 _253_
*660 _254_
*661 _255_
*662 _256_
*663 _257_
*664 _258_
*665 _259_
*666 _260_
*667 _261_
*668 _262_
*669 _263_
*670 _264_
*671 _265_
*672 _266_
*673 _267_
*674 _268_
*675 _269_
*676 _270_
*677 _271_
*678 _272_
*679 _273_
*680 _274_
*681 _275_
*682 _276_
*683 _277_
*684 _278_
*685 _279_
*686 _280_
*687 _281_
*688 _282_
*689 _283_
*690 _284_
*691 _285_
*692 _286_
*693 _287_
*694 _288_
*695 _289_
*696 _290_
*697 _291_
*698 _292_
*699 _293_
*700 _294_
*701 _295_
*702 _296_
*703 _297_
*704 _298_
*705 _299_
*706 _300_
*707 _301_
*708 _302_
*709 _303_
*710 _304_
*711 _305_
*712 _306_
*713 _307_
*714 _308_
*715 fanout24
*716 fanout25
*717 fanout26
*718 fanout27
*719 fanout28
*720 fanout29
*721 fanout30
*722 fanout31
*723 fanout32
*724 fanout33
*725 fanout34
*726 fanout35
*727 input1
*728 input10
*729 input11
*730 input12
*731 input13
*732 input2
*733 input3
*734 input4
*735 input5
*736 input6
*737 input7
*738 input8
*739 input9
*740 output14
*741 output15
*742 output16
*743 output17
*744 output18
*745 output19
*746 output20
*747 output21
*748 output22
*749 output23
*750 rebuffer1
*751 rebuffer2
*752 rebuffer3

*PORTS
clk_i I
clk_o O
cycl_count_o[0] O
cycl_count_o[1] O
cycl_count_o[2] O
cycl_count_o[3] O
cycl_count_o[4] O
cycl_count_o[5] O
cycl_count_o[6] O
cycl_count_o[7] O
div_i[0] I
div_i[1] I
div_i[2] I
div_i[3] I
div_i[4] I
div_i[5] I
div_i[6] I
div_i[7] I
div_ready_o O
div_valid_i I
en_i I
rst_ni I
test_mode_en_i I

*D_NET *3 0.000669055
*CONN
*P clk_i I
*I *727:A I *D sky130_fd_sc_hd__buf_1
*CAP
1 clk_i 0.000334528
2 *727:A 0
3 *3:17 0.000334528
4 *3:17 *13:15 0
*RES
1 clk_i *3:17 27.5105 
2 *3:17 *727:A 23 
*END

*D_NET *4 0.00104903
*CONN
*P clk_o O
*I *740:X O *D sky130_fd_sc_hd__buf_2
*CAP
1 clk_o 0.000524517
2 *740:X 0.000524517
*RES
1 *740:X clk_o 48.5021 
*END

*D_NET *5 0.000941428
*CONN
*P cycl_count_o[0] O
*I *741:X O *D sky130_fd_sc_hd__buf_2
*CAP
1 cycl_count_o[0] 0.0004592
2 *741:X 0.0004592
3 cycl_count_o[0] cycl_count_o[1] 0
4 cycl_count_o[0] *193:20 2.30292e-05
*RES
1 *741:X cycl_count_o[0] 47.0936 
*END

*D_NET *6 0.000953282
*CONN
*P cycl_count_o[1] O
*I *742:X O *D sky130_fd_sc_hd__buf_2
*CAP
1 cycl_count_o[1] 0.000452212
2 *742:X 0.000452212
3 cycl_count_o[1] cycl_count_o[2] 0
4 cycl_count_o[1] *741:A 6.17437e-06
5 cycl_count_o[1] *742:A 3.22879e-05
6 cycl_count_o[1] *193:20 1.03955e-05
7 cycl_count_o[0] cycl_count_o[1] 0
*RES
1 *742:X cycl_count_o[1] 47.0936 
*END

*D_NET *7 0.000944957
*CONN
*P cycl_count_o[2] O
*I *743:X O *D sky130_fd_sc_hd__buf_2
*CAP
1 cycl_count_o[2] 0.00045391
2 *743:X 0.00045391
3 cycl_count_o[2] *193:20 3.71369e-05
4 cycl_count_o[1] cycl_count_o[2] 0
*RES
1 *743:X cycl_count_o[2] 47.0936 
*END

*D_NET *8 0.000666364
*CONN
*P cycl_count_o[3] O
*I *744:X O *D sky130_fd_sc_hd__buf_2
*CAP
1 cycl_count_o[3] 0.00025675
2 *744:X 0.00025675
3 cycl_count_o[3] *723:A 7.46212e-05
4 cycl_count_o[3] *730:A 7.82427e-05
*RES
1 *744:X cycl_count_o[3] 47.8691 
*END

*D_NET *9 0.000897752
*CONN
*P cycl_count_o[4] O
*I *745:X O *D sky130_fd_sc_hd__buf_2
*CAP
1 cycl_count_o[4] 0.000368137
2 *745:X 0.000368137
3 cycl_count_o[4] cycl_count_o[5] 8.97484e-05
4 cycl_count_o[4] *210:28 7.17297e-05
*RES
1 *745:X cycl_count_o[4] 48.2126 
*END

*D_NET *10 0.000654917
*CONN
*P cycl_count_o[5] O
*I *746:X O *D sky130_fd_sc_hd__buf_2
*CAP
1 cycl_count_o[5] 0.000205859
2 *746:X 0.000205859
3 cycl_count_o[5] cycl_count_o[6] 7.88294e-05
4 cycl_count_o[5] *197:8 7.46212e-05
5 cycl_count_o[4] cycl_count_o[5] 8.97484e-05
*RES
1 *746:X cycl_count_o[5] 47.8691 
*END

*D_NET *11 0.000566322
*CONN
*P cycl_count_o[6] O
*I *747:X O *D sky130_fd_sc_hd__buf_2
*CAP
1 cycl_count_o[6] 0.000200058
2 *747:X 0.000200058
3 cycl_count_o[6] cycl_count_o[7] 8.73764e-05
4 cycl_count_o[6] *210:32 0
5 cycl_count_o[5] cycl_count_o[6] 7.88294e-05
*RES
1 *747:X cycl_count_o[6] 47.5169 
*END

*D_NET *12 0.000583213
*CONN
*P cycl_count_o[7] O
*I *748:X O *D sky130_fd_sc_hd__buf_2
*CAP
1 cycl_count_o[7] 0.000230953
2 *748:X 0.000230953
3 cycl_count_o[7] *747:A 2.04774e-05
4 cycl_count_o[7] *748:A 1.34542e-05
5 cycl_count_o[6] cycl_count_o[7] 8.73764e-05
*RES
1 *748:X cycl_count_o[7] 47.8691 
*END

*D_NET *13 0.000836494
*CONN
*P div_i[0] I
*I *732:A I *D sky130_fd_sc_hd__clkbuf_1
*CAP
1 div_i[0] 0.000374278
2 *732:A 0
3 *13:15 0.000374278
4 *13:15 *725:A 1.14154e-05
5 *13:15 *185:12 3.22879e-05
6 *13:15 *185:31 2.4754e-05
7 *13:15 *212:8 1.94812e-05
8 *3:17 *13:15 0
*RES
1 div_i[0] *13:15 28.5796 
2 *13:15 *732:A 23 
*END

*D_NET *14 0.000692318
*CONN
*P div_i[1] I
*I *733:A I *D sky130_fd_sc_hd__buf_1
*CAP
1 div_i[1] 0.00031871
2 *733:A 0
3 *14:17 0.00031871
4 *14:17 *15:17 2.74495e-05
5 *14:17 *16:17 2.74495e-05
*RES
1 div_i[1] *14:17 27.5105 
2 *14:17 *733:A 23 
*END

*D_NET *15 0.000715055
*CONN
*P div_i[2] I
*I *734:A I *D sky130_fd_sc_hd__buf_6
*CAP
1 div_i[2] 0.000343803
2 *734:A 0
3 *15:17 0.000343803
4 *15:17 *45:10 0
5 *14:17 *15:17 2.74495e-05
*RES
1 div_i[2] *15:17 27.6348 
2 *15:17 *734:A 23 
*END

*D_NET *16 0.00078487
*CONN
*P div_i[3] I
*I *735:A I *D sky130_fd_sc_hd__buf_1
*CAP
1 div_i[3] 0.000364985
2 *735:A 0
3 *16:17 0.000364985
4 *16:17 *738:A 2.74495e-05
5 *16:17 *18:13 0
6 *14:17 *16:17 2.74495e-05
*RES
1 div_i[3] *16:17 28.567 
2 *16:17 *735:A 23 
*END

*D_NET *17 0.000658406
*CONN
*P div_i[4] I
*I *736:A I *D sky130_fd_sc_hd__buf_1
*CAP
1 div_i[4] 0.00031858
2 *736:A 0
3 *17:17 0.00031858
4 *17:17 *739:A 2.12457e-05
*RES
1 div_i[4] *17:17 27.1584 
2 *17:17 *736:A 23 
*END

*D_NET *18 0.00113983
*CONN
*P div_i[5] I
*I *737:A I *D sky130_fd_sc_hd__buf_1
*CAP
1 div_i[5] 0.000532456
2 *737:A 0
3 *18:13 0.000532456
4 *18:13 *738:A 4.23524e-05
5 *18:13 *739:A 3.25681e-05
6 *18:13 *57:8 0
7 *18:13 *215:10 0
8 *16:17 *18:13 0
*RES
1 div_i[5] *18:13 32.5153 
2 *18:13 *737:A 23 
*END

*D_NET *19 0.000693359
*CONN
*P div_i[6] I
*I *738:A I *D sky130_fd_sc_hd__buf_8
*CAP
1 div_i[6] 0.000311778
2 *738:A 0.000311778
3 *16:17 *738:A 2.74495e-05
4 *18:13 *738:A 4.23524e-05
*RES
1 div_i[6] *738:A 49.8062 
*END

*D_NET *20 0.000583768
*CONN
*P div_i[7] I
*I *739:A I *D sky130_fd_sc_hd__buf_8
*CAP
1 div_i[7] 0.000264977
2 *739:A 0.000264977
3 *739:A *71:10 0
4 *739:A *220:29 0
5 *17:17 *739:A 2.12457e-05
6 *18:13 *739:A 3.25681e-05
*RES
1 div_i[7] *739:A 48.1354 
*END

*D_NET *21 0.00161068
*CONN
*P div_ready_o O
*I *749:X O *D sky130_fd_sc_hd__buf_6
*CAP
1 div_ready_o 0.000470091
2 *749:X 0.000208926
3 *21:8 0.000679017
4 div_ready_o *22:11 0
5 *21:8 *749:A 4.66047e-05
6 *21:8 *22:11 0.00010018
7 *21:8 *186:10 3.71369e-05
8 *21:8 *186:38 6.87243e-05
*RES
1 *749:X *21:8 42.9093 
2 *21:8 div_ready_o 10.1086 
*END

*D_NET *22 0.00133632
*CONN
*P div_valid_i I
*I *728:A I *D sky130_fd_sc_hd__buf_1
*CAP
1 div_valid_i 0.000567981
2 *728:A 0
3 *22:11 0.000567981
4 *22:11 *729:A 0
5 *22:11 *749:A 0.00010018
6 div_ready_o *22:11 0
7 *21:8 *22:11 0.00010018
*RES
1 div_valid_i *22:11 27.18 
2 *22:11 *728:A 23 
*END

*D_NET *23 0.00105017
*CONN
*P en_i I
*I *729:A I *D sky130_fd_sc_hd__clkbuf_1
*CAP
1 en_i 0.000525087
2 *729:A 0.000525087
3 *22:11 *729:A 0
*RES
1 en_i *729:A 49.0821 
*END

*D_NET *24 0.000721248
*CONN
*P rst_ni I
*I *730:A I *D sky130_fd_sc_hd__clkbuf_1
*CAP
1 rst_ni 0.000270971
2 *730:A 0.000270971
3 *730:A *723:A 3.55887e-05
4 *730:A *188:12 6.54744e-05
5 cycl_count_o[3] *730:A 7.82427e-05
*RES
1 rst_ni *730:A 49.1918 
*END

*D_NET *25 0.0010472
*CONN
*P test_mode_en_i I
*I *731:A I *D sky130_fd_sc_hd__clkbuf_1
*CAP
1 test_mode_en_i 0.0005236
2 *731:A 0.0005236
*RES
1 test_mode_en_i *731:A 49.0821 
*END

*D_NET *26 0.000535168
*CONN
*I *714:D I *D sky130_fd_sc_hd__dlxtp_1
*I *613:X O *D sky130_fd_sc_hd__or2_1
*CAP
1 *714:D 3.77894e-05
2 *613:X 0.000132208
3 *26:10 0.000169997
4 *26:10 *27:14 0.000141869
5 *26:10 *209:77 5.3304e-05
6 *26:10 *212:85 0
*RES
1 *613:X *26:10 40.5271 
2 *26:10 *714:D 38.6214 
*END

*D_NET *27 0.00114855
*CONN
*I *714:GATE I *D sky130_fd_sc_hd__dlxtp_1
*I *608:Y O *D sky130_fd_sc_hd__inv_2
*CAP
1 *714:GATE 0
2 *608:Y 0.000312482
3 *27:14 0.000312482
4 *27:14 *604:B 0.000166513
5 *27:14 *607:S 5.50106e-05
6 *27:14 *168:30 0
7 *27:14 *189:8 0.000160191
8 *27:14 *212:85 0
9 *26:10 *27:14 0.000141869
*RES
1 *608:Y *27:14 44.815 
2 *27:14 *714:GATE 38 
*END

*D_NET *28 0.00182201
*CONN
*I *692:CLK I *D sky130_fd_sc_hd__dfrtp_1
*I *612:B I *D sky130_fd_sc_hd__and2_1
*I *608:A I *D sky130_fd_sc_hd__inv_2
*I *607:X O *D sky130_fd_sc_hd__mux2_1
*CAP
1 *692:CLK 0
2 *612:B 0
3 *608:A 7.72278e-05
4 *607:X 0
5 *28:30 0.000328362
6 *28:17 0.000741866
7 *28:4 0.000490733
8 *608:A *607:S 5.70419e-05
9 *28:17 *607:A0 2.93845e-05
10 *28:17 *607:A1 5.41288e-05
11 *28:17 *607:S 4.32661e-05
12 *28:30 *78:8 0
13 *28:30 *181:10 0
*RES
1 *607:X *28:4 23 
2 *28:4 *608:A 24.9471 
3 *28:4 *28:17 6.235 
4 *28:17 *612:B 23 
5 *28:17 *28:30 35.9657 
6 *28:30 *692:CLK 23 
*END

*D_NET *29 0.000137178
*CONN
*I *693:CLK I *D sky130_fd_sc_hd__dfrtp_1
*I *548:Y O *D sky130_fd_sc_hd__inv_2
*CAP
1 *693:CLK 4.00681e-05
2 *548:Y 4.00681e-05
3 *693:CLK *548:A 5.70419e-05
*RES
1 *548:Y *693:CLK 47.0979 
*END

*D_NET *30 0.000926454
*CONN
*I *690:D I *D sky130_fd_sc_hd__dfrtp_1
*I *614:X O *D sky130_fd_sc_hd__a22o_1
*CAP
1 *690:D 4.23862e-05
2 *614:X 0.000221644
3 *30:8 0.00026403
4 *690:D *157:16 7.59964e-05
5 *690:D *183:37 0.000103637
6 *30:8 *603:A2 6.6663e-06
7 *30:8 *603:A3 0.000168754
8 *30:8 *155:24 0
9 *30:8 *157:12 0
10 *30:8 *158:14 0
11 *30:8 *200:10 4.334e-05
12 *30:8 *201:132 0
*RES
1 *614:X *30:8 42.7229 
2 *30:8 *690:D 40.0507 
*END

*D_NET *31 0.000568626
*CONN
*I *691:D I *D sky130_fd_sc_hd__dfrtp_1
*I *642:Y O *D sky130_fd_sc_hd__nand2_1
*CAP
1 *691:D 0
2 *642:Y 0.000200503
3 *31:10 0.000200503
4 *31:10 *73:14 3.40698e-05
5 *31:10 *106:8 6.68587e-05
6 *31:10 *201:30 6.66925e-05
*RES
1 *642:Y *31:10 41.48 
2 *31:10 *691:D 38 
*END

*D_NET *32 0.000636417
*CONN
*I *693:D I *D sky130_fd_sc_hd__dfrtp_1
*I *582:X O *D sky130_fd_sc_hd__xor2_1
*CAP
1 *693:D 0
2 *582:X 0.000127278
3 *32:10 0.000127278
4 *32:10 *161:12 0.00014411
5 *32:10 *185:39 9.58714e-05
6 *32:10 *212:105 0.000141879
*RES
1 *582:X *32:10 41.0036 
2 *32:10 *693:D 38 
*END

*D_NET *33 0.0010939
*CONN
*I *694:D I *D sky130_fd_sc_hd__dfrtp_1
*I *653:Y O *D sky130_fd_sc_hd__xnor2_1
*CAP
1 *694:D 0
2 *653:Y 0.000475971
3 *33:10 0.000475971
4 *33:10 *116:12 0.000141954
*RES
1 *653:Y *33:10 46.5964 
2 *33:10 *694:D 38 
*END

*D_NET *34 0.000638201
*CONN
*I *695:D I *D sky130_fd_sc_hd__dfrtp_1
*I *657:X O *D sky130_fd_sc_hd__mux2_1
*CAP
1 *695:D 0
2 *657:X 0.000291595
3 *34:10 0.000291595
4 *34:10 *695:CLK 0
5 *34:10 *119:98 0
6 *34:10 *164:8 5.50106e-05
7 *34:10 *212:105 0
*RES
1 *657:X *34:10 42.9921 
2 *34:10 *695:D 38 
*END

*D_NET *35 0.000473889
*CONN
*I *696:D I *D sky130_fd_sc_hd__dfrtp_4
*I *659:X O *D sky130_fd_sc_hd__a32o_1
*CAP
1 *696:D 0
2 *659:X 0.000183271
3 *35:10 0.000183271
4 *35:10 *695:CLK 2.75733e-06
5 *35:10 *117:80 9.84851e-05
6 *35:10 *120:10 0
7 *35:10 *212:105 6.10551e-06
*RES
1 *659:X *35:10 41.0036 
2 *35:10 *696:D 38 
*END

*D_NET *36 0.00111566
*CONN
*I *697:D I *D sky130_fd_sc_hd__dfrtp_4
*I *662:X O *D sky130_fd_sc_hd__a32o_1
*CAP
1 *697:D 0
2 *662:X 0.00035643
3 *36:10 0.00035643
4 *36:10 *170:14 0
5 *36:10 *208:10 0.000402801
*RES
1 *662:X *36:10 43.9864 
2 *36:10 *697:D 38 
*END

*D_NET *37 0.000313528
*CONN
*I *698:D I *D sky130_fd_sc_hd__dfrtp_4
*I *666:X O *D sky130_fd_sc_hd__a32o_1
*CAP
1 *698:D 3.45884e-05
2 *666:X 3.45884e-05
3 *698:D *119:53 0.000187129
4 *698:D *123:10 5.72217e-05
*RES
1 *666:X *698:D 48.0507 
*END

*D_NET *38 0.000352921
*CONN
*I *699:D I *D sky130_fd_sc_hd__dfrtp_2
*I *669:X O *D sky130_fd_sc_hd__a32o_1
*CAP
1 *699:D 0
2 *669:X 0.000141272
3 *38:10 0.000141272
4 *38:10 *698:CLK 0
5 *38:10 *119:47 7.03766e-05
*RES
1 *669:X *38:10 40.5271 
2 *38:10 *699:D 38 
*END

*D_NET *39 0.000817336
*CONN
*I *700:D I *D sky130_fd_sc_hd__dfrtp_2
*I *673:X O *D sky130_fd_sc_hd__a32o_1
*CAP
1 *700:D 0
2 *673:X 0.000239007
3 *39:10 0.000239007
4 *39:10 *119:41 0.00014411
5 *39:10 *123:63 1.14452e-05
6 *39:10 *129:10 6.43005e-05
7 *39:10 *195:49 0.000119467
*RES
1 *673:X *39:10 42.4329 
2 *39:10 *700:D 38 
*END

*D_NET *40 0.000420627
*CONN
*I *701:D I *D sky130_fd_sc_hd__dfrtp_4
*I *676:X O *D sky130_fd_sc_hd__a32o_1
*CAP
1 *701:D 0
2 *676:X 0.000133419
3 *40:10 0.000133419
4 *40:10 *131:14 0.000114083
5 *40:10 *132:8 1.56662e-06
6 *40:10 *213:12 3.81391e-05
*RES
1 *676:X *40:10 40.6514 
2 *40:10 *701:D 38 
*END

*D_NET *41 0.000761686
*CONN
*I *702:D I *D sky130_fd_sc_hd__dfrtp_4
*I *678:X O *D sky130_fd_sc_hd__a22o_1
*CAP
1 *702:D 0
2 *678:X 0.000230344
3 *41:10 0.000230344
4 *41:10 *702:CLK 3.46181e-05
5 *41:10 *117:27 3.83778e-05
6 *41:10 *199:27 0.000228001
*RES
1 *678:X *41:10 42.0807 
2 *41:10 *702:D 38 
*END

*D_NET *42 0.00157677
*CONN
*I *703:D I *D sky130_fd_sc_hd__dfstp_1
*I *680:X O *D sky130_fd_sc_hd__a21o_1
*CAP
1 *703:D 0
2 *680:X 0.000602196
3 *42:10 0.000602196
4 *42:10 *703:SET_B 0
5 *42:10 *711:SET_B 0
6 *42:10 *713:CLK 0
7 *42:10 *59:10 0.000252172
8 *42:10 *157:22 5.33213e-05
9 *42:10 *157:26 0
10 *42:10 *211:14 0
11 *42:10 *211:30 6.68822e-05
*RES
1 *680:X *42:10 48.5436 
2 *42:10 *703:D 38 
*END

*D_NET *43 0.00147049
*CONN
*I *704:D I *D sky130_fd_sc_hd__dfrtp_1
*I *681:X O *D sky130_fd_sc_hd__mux2_1
*CAP
1 *704:D 4.01848e-05
2 *681:X 0.000428338
3 *43:8 0.000468523
4 *43:8 *704:CLK 9.98891e-05
5 *43:8 *44:8 0.000114092
6 *43:8 *171:42 0
7 *43:8 *172:8 0
8 *43:8 *211:46 5.19173e-05
9 *43:8 *211:57 7.03766e-05
10 *43:8 *211:59 3.0647e-05
11 *43:8 *217:12 0.000166522
*RES
1 *681:X *43:8 48.005 
2 *43:8 *704:D 38.6214 
*END

*D_NET *44 0.000407372
*CONN
*I *705:D I *D sky130_fd_sc_hd__dfrtp_4
*I *682:X O *D sky130_fd_sc_hd__mux2_1
*CAP
1 *705:D 4.90979e-05
2 *682:X 3.93847e-05
3 *44:8 8.84825e-05
4 *44:8 *211:46 0.000116314
5 *43:8 *44:8 0.000114092
*RES
1 *682:X *44:8 39.5536 
2 *44:8 *705:D 38.6214 
*END

*D_NET *45 0.000961829
*CONN
*I *706:D I *D sky130_fd_sc_hd__dfrtp_4
*I *683:X O *D sky130_fd_sc_hd__mux2_1
*CAP
1 *706:D 0
2 *683:X 0.000478278
3 *45:10 0.000478278
4 *45:10 *704:CLK 0
5 *45:10 *172:16 0
6 *45:10 *207:6 5.27215e-06
7 *45:10 *211:46 0
8 *45:10 *211:57 0
9 *45:10 *211:59 0
10 *15:17 *45:10 0
*RES
1 *683:X *45:10 46.1614 
2 *45:10 *706:D 38 
*END

*D_NET *46 0.000599728
*CONN
*I *707:D I *D sky130_fd_sc_hd__dfrtp_1
*I *684:X O *D sky130_fd_sc_hd__mux2_1
*CAP
1 *707:D 0
2 *684:X 0.000195903
3 *46:10 0.000195903
4 *46:10 *157:26 0
5 *46:10 *176:12 6.6869e-05
6 *46:10 *219:23 0.000141052
*RES
1 *684:X *46:10 41.48 
2 *46:10 *707:D 38 
*END

*D_NET *47 0.00163117
*CONN
*I *708:D I *D sky130_fd_sc_hd__dfrtp_1
*I *685:X O *D sky130_fd_sc_hd__mux2_1
*CAP
1 *708:D 0
2 *685:X 0.000578815
3 *47:10 0.000578815
4 *47:10 *49:10 6.93449e-05
5 *47:10 *211:44 0
6 *47:10 *220:29 0.000256725
7 *47:10 *222:6 9.41704e-05
8 *47:10 *222:28 5.3304e-05
*RES
1 *685:X *47:10 47.1557 
2 *47:10 *708:D 38 
*END

*D_NET *48 0.000518915
*CONN
*I *709:D I *D sky130_fd_sc_hd__dfrtp_2
*I *686:X O *D sky130_fd_sc_hd__mux2_1
*CAP
1 *709:D 3.35457e-05
2 *686:X 7.55506e-05
3 *48:8 0.000109096
4 *709:D *709:CLK 7.53384e-06
5 *709:D *217:27 3.80755e-05
6 *709:D *220:15 0.00014196
7 *48:8 *211:44 0.000113153
8 *48:8 *220:21 0
*RES
1 *686:X *48:8 39.5536 
2 *48:8 *709:D 39.5743 
*END

*D_NET *49 0.000742743
*CONN
*I *710:D I *D sky130_fd_sc_hd__dfrtp_4
*I *687:X O *D sky130_fd_sc_hd__mux2_1
*CAP
1 *710:D 0
2 *687:X 0.000286609
3 *49:10 0.000286609
4 *49:10 *58:10 0
5 *49:10 *211:38 0
6 *49:10 *219:6 0.00010018
7 *47:10 *49:10 6.93449e-05
*RES
1 *687:X *49:10 43.4686 
2 *49:10 *710:D 38 
*END

*D_NET *50 0.000662303
*CONN
*I *711:D I *D sky130_fd_sc_hd__dfstp_1
*I *688:X O *D sky130_fd_sc_hd__mux2_1
*CAP
1 *711:D 0
2 *688:X 0.000201161
3 *50:10 0.000201161
4 *50:10 *713:CLK 0
5 *50:10 *166:10 0
6 *50:10 *185:8 7.28526e-05
7 *50:10 *185:31 0.000187129
*RES
1 *688:X *50:10 41.9564 
2 *50:10 *711:D 38 
*END

*D_NET *51 0.00240012
*CONN
*I *713:D I *D sky130_fd_sc_hd__dfrtp_1
*I *689:X O *D sky130_fd_sc_hd__a21o_1
*CAP
1 *713:D 0.000276301
2 *689:X 0.000240889
3 *51:10 0.00051719
4 *713:D *713:RESET_B 4.58635e-05
5 *713:D *166:23 0.000191631
6 *713:D *185:31 0.000340149
7 *51:10 *680:A1 0.000364537
8 *51:10 *719:A 6.48142e-05
9 *51:10 *73:14 0
10 *51:10 *74:8 0.000191157
11 *51:10 *201:38 1.83667e-05
12 *51:10 *209:109 0.000133316
13 *51:10 *212:66 1.59094e-05
*RES
1 *689:X *51:10 44.4007 
2 *51:10 *713:D 45.2914 
*END

*D_NET *52 0.000397087
*CONN
*I *580:B1 I *D sky130_fd_sc_hd__o2111a_1
*I *578:X O *D sky130_fd_sc_hd__and4_1
*CAP
1 *580:B1 0
2 *578:X 8.47506e-05
3 *52:10 8.47506e-05
4 *52:10 *578:D 5.50106e-05
5 *52:10 *648:B 8.62876e-05
6 *52:10 *109:8 8.62876e-05
*RES
1 *578:X *52:10 39.8229 
2 *52:10 *580:B1 38 
*END

*D_NET *53 0.000514966
*CONN
*I *580:C1 I *D sky130_fd_sc_hd__o2111a_1
*I *579:Y O *D sky130_fd_sc_hd__xnor2_1
*CAP
1 *580:C1 0.000185164
2 *579:Y 0.000185164
3 *580:C1 *577:A 5.90132e-05
4 *580:C1 *150:12 8.56254e-05
*RES
1 *579:Y *580:C1 49.0243 
*END

*D_NET *54 0.00334678
*CONN
*I *581:D I *D sky130_fd_sc_hd__and4_1
*I *580:X O *D sky130_fd_sc_hd__o2111a_1
*CAP
1 *581:D 0
2 *580:X 1.91252e-05
3 *54:14 0.000728995
4 *54:8 0.00074812
5 *54:8 *150:12 5.50106e-05
6 *54:8 *154:14 5.3304e-05
7 *54:14 *556:A 0.000357564
8 *54:14 *578:B 0.000678131
9 *54:14 *55:10 8.91468e-07
10 *54:14 *108:10 0.000222113
11 *54:14 *110:8 7.03766e-05
12 *54:14 *136:36 4.13945e-05
13 *54:14 *140:18 0
14 *54:14 *141:8 0.000133316
15 *54:14 *146:8 4.48671e-05
16 *54:14 *147:8 2.5415e-05
17 *54:14 *183:58 7.58969e-05
18 *54:14 *198:64 8.21456e-06
19 *54:14 *199:37 0
20 *54:14 *199:39 0
21 *54:14 *202:87 8.4047e-05
*RES
1 *580:X *54:8 38.6214 
2 *54:8 *54:14 31.6129 
3 *54:14 *581:D 23 
*END

*D_NET *55 0.000822006
*CONN
*I *582:B I *D sky130_fd_sc_hd__xor2_1
*I *581:X O *D sky130_fd_sc_hd__and4_1
*CAP
1 *582:B 0
2 *581:X 0.000275103
3 *55:10 0.000275103
4 *55:10 *556:A 0.000163361
5 *55:10 *161:12 0.000107548
6 *55:10 *199:35 0
7 *54:14 *55:10 8.91468e-07
*RES
1 *581:X *55:10 43.6964 
2 *55:10 *582:B 38 
*END

*D_NET *56 0.00180985
*CONN
*I *611:B I *D sky130_fd_sc_hd__and2b_1
*I *614:B1 I *D sky130_fd_sc_hd__a22o_1
*I *603:A2 I *D sky130_fd_sc_hd__a31o_1
*I *583:Y O *D sky130_fd_sc_hd__nor2_1
*CAP
1 *611:B 0
2 *614:B1 0
3 *603:A2 0.000188043
4 *583:Y 0.000194628
5 *56:12 0.000377406
6 *56:6 0.000383991
7 *603:A2 *603:A3 2.4196e-05
8 *603:A2 *614:B2 1.01436e-05
9 *603:A2 *73:14 5.44889e-06
10 *603:A2 *75:10 0.000136486
11 *603:A2 *156:20 1.37246e-05
12 *603:A2 *201:132 2.64719e-05
13 *603:A2 *212:66 0.000141879
14 *56:6 *168:45 4.04598e-06
15 *56:12 *611:A_N 0.000114083
16 *56:12 *614:B2 7.70737e-05
17 *56:12 *186:10 4.16764e-05
18 *56:12 *212:66 6.38845e-05
19 *30:8 *603:A2 6.6663e-06
*RES
1 *583:Y *56:6 26.0036 
2 *56:6 *56:12 19.1843 
3 *56:12 *603:A2 42.5571 
4 *56:12 *614:B1 38 
5 *56:6 *611:B 23 
*END

*D_NET *57 0.000548712
*CONN
*I *585:D I *D sky130_fd_sc_hd__nor4_4
*I *584:X O *D sky130_fd_sc_hd__or4_4
*CAP
1 *585:D 0
2 *584:X 0.000271318
3 *57:8 0.000271318
4 *57:8 *211:44 0
5 *57:8 *215:10 6.07611e-06
6 *57:8 *221:8 0
7 *18:13 *57:8 0
*RES