*SPEF "ieee 1481-1999"
*DESIGN "freq_psc"
*DATE "14:43:20 Monday October 28, 2024"
*VENDOR "The OpenROAD Project"
*PROGRAM "OpenROAD"
*VERSION "edf00dff99f6c40d67a30c0e22a8191c5d2ed9d6"
*DESIGN_FLOW "NAME_SCOPE LOCAL" "PIN_CAP NONE"
*DIVIDER /
*DELIMITER :
*BUS_DELIMITER []
*T_UNIT 1 NS
*C_UNIT 1 PF
*R_UNIT 1 OHM
*L_UNIT 1 HENRY

*NAME_MAP
*3 clk
*4 out
*5 psc[0]
*6 psc[1]
*7 psc[2]
*8 psc[3]
*9 psc[4]
*10 psc[5]
*11 psc[6]
*12 psc[7]
*13 rst
*14 _000_
*15 _001_
*16 _002_
*17 _003_
*18 _004_
*19 _005_
*20 _006_
*21 _007_
*22 _008_
*23 _009_
*24 _010_
*25 _011_
*26 _012_
*27 _013_
*28 _014_
*29 _015_
*30 _016_
*31 _017_
*32 _018_
*33 _019_
*34 _020_
*35 _021_
*36 _022_
*37 _023_
*38 _024_
*39 _025_
*40 _026_
*41 _027_
*42 _028_
*43 _029_
*44 _030_
*45 _031_
*46 _032_
*47 _033_
*48 _034_
*49 _035_
*50 _036_
*51 _037_
*52 _038_
*53 _039_
*54 _040_
*55 _041_
*56 _042_
*57 _043_
*58 _044_
*59 _045_
*60 _046_
*61 _047_
*62 _048_
*63 _049_
*64 _050_
*65 _051_
*66 _052_
*67 _053_
*68 _054_
*69 _055_
*70 _056_
*71 _057_
*72 _058_
*73 _059_
*74 _060_
*75 _061_
*76 _062_
*77 _063_
*78 _064_
*79 _065_
*80 _066_
*81 _067_
*82 _068_
*83 _069_
*84 _070_
*85 _071_
*86 _072_
*87 clknet_0_clk
*88 clknet_1_0__leaf_clk
*89 clknet_1_1__leaf_clk
*90 counter\[0\]
*91 counter\[1\]
*92 counter\[2\]
*93 counter\[3\]
*94 counter\[4\]
*95 counter\[5\]
*96 counter\[6\]
*97 counter\[7\]
*98 net1
*99 net10
*100 net11
*101 net12
*102 net2
*103 net3
*104 net4
*105 net5
*106 net6
*107 net7
*108 net8
*109 net9
*110 FILLER_0_15
*111 FILLER_0_27
*112 FILLER_0_29
*113 FILLER_0_3
*114 FILLER_0_41
*115 FILLER_0_53
*116 FILLER_0_57
*117 FILLER_0_69
*118 FILLER_10_20
*119 FILLER_10_24
*120 FILLER_10_29
*121 FILLER_10_41
*122 FILLER_10_47
*123 FILLER_10_51
*124 FILLER_10_57
*125 FILLER_10_63
*126 FILLER_10_80
*127 FILLER_11_19
*128 FILLER_11_39
*129 FILLER_11_51
*130 FILLER_11_55
*131 FILLER_11_6
*132 FILLER_11_64
*133 FILLER_12_36
*134 FILLER_12_45
*135 FILLER_12_6
*136 FILLER_12_80
*137 FILLER_13_15
*138 FILLER_13_23
*139 FILLER_13_3
*140 FILLER_13_32
*141 FILLER_13_44
*142 FILLER_13_55
*143 FILLER_13_57
*144 FILLER_13_65
*145 FILLER_13_77
*146 FILLER_1_15
*147 FILLER_1_27
*148 FILLER_1_3
*149 FILLER_1_35
*150 FILLER_1_60
*151 FILLER_1_72
*152 FILLER_2_3
*153 FILLER_2_32
*154 FILLER_2_57
*155 FILLER_2_81
*156 FILLER_3_14
*157 FILLER_3_26
*158 FILLER_3_3
*159 FILLER_3_54
*160 FILLER_3_57
*161 FILLER_3_7
*162 FILLER_3_74
*163 FILLER_3_80
*164 FILLER_4_3
*165 FILLER_4_32
*166 FILLER_4_44
*167 FILLER_5_28
*168 FILLER_5_32
*169 FILLER_6_15
*170 FILLER_6_24
*171 FILLER_6_60
*172 FILLER_7_43
*173 FILLER_7_55
*174 FILLER_7_57
*175 FILLER_8_10
*176 FILLER_8_18
*177 FILLER_8_24
*178 FILLER_8_29
*179 FILLER_8_3
*180 FILLER_8_41
*181 FILLER_8_56
*182 FILLER_8_80
*183 FILLER_9_12
*184 FILLER_9_3
*185 FILLER_9_31
*186 FILLER_9_41
*187 FILLER_9_45
*188 FILLER_9_55
*189 FILLER_9_57
*190 FILLER_9_62
*191 FILLER_9_70
*192 PHY_EDGE_ROW_0_Left_14
*193 PHY_EDGE_ROW_0_Right_0
*194 PHY_EDGE_ROW_10_Left_24
*195 PHY_EDGE_ROW_10_Right_10
*196 PHY_EDGE_ROW_11_Left_25
*197 PHY_EDGE_ROW_11_Right_11
*198 PHY_EDGE_ROW_12_Left_26
*199 PHY_EDGE_ROW_12_Right_12
*200 PHY_EDGE_ROW_13_Left_27
*201 PHY_EDGE_ROW_13_Right_13
*202 PHY_EDGE_ROW_1_Left_15
*203 PHY_EDGE_ROW_1_Right_1
*204 PHY_EDGE_ROW_2_Left_16
*205 PHY_EDGE_ROW_2_Right_2
*206 PHY_EDGE_ROW_3_Left_17
*207 PHY_EDGE_ROW_3_Right_3
*208 PHY_EDGE_ROW_4_Left_18
*209 PHY_EDGE_ROW_4_Right_4
*210 PHY_EDGE_ROW_5_Left_19
*211 PHY_EDGE_ROW_5_Right_5
*212 PHY_EDGE_ROW_6_Left_20
*213 PHY_EDGE_ROW_6_Right_6
*214 PHY_EDGE_ROW_7_Left_21
*215 PHY_EDGE_ROW_7_Right_7
*216 PHY_EDGE_ROW_8_Left_22
*217 PHY_EDGE_ROW_8_Right_8
*218 PHY_EDGE_ROW_9_Left_23
*219 PHY_EDGE_ROW_9_Right_9
*220 TAP_TAPCELL_ROW_0_28
*221 TAP_TAPCELL_ROW_0_29
*222 TAP_TAPCELL_ROW_10_39
*223 TAP_TAPCELL_ROW_11_40
*224 TAP_TAPCELL_ROW_12_41
*225 TAP_TAPCELL_ROW_13_42
*226 TAP_TAPCELL_ROW_13_43
*227 TAP_TAPCELL_ROW_1_30
*228 TAP_TAPCELL_ROW_2_31
*229 TAP_TAPCELL_ROW_3_32
*230 TAP_TAPCELL_ROW_4_33
*231 TAP_TAPCELL_ROW_5_34
*232 TAP_TAPCELL_ROW_6_35
*233 TAP_TAPCELL_ROW_7_36
*234 TAP_TAPCELL_ROW_8_37
*235 TAP_TAPCELL_ROW_9_38
*236 _073_
*237 _074_
*238 _075_
*239 _076_
*240 _077_
*241 _078_
*242 _079_
*243 _080_
*244 _081_
*245 _082_
*246 _083_
*247 _084_
*248 _085_
*249 _086_
*250 _087_
*251 _088_
*252 _089_
*253 _090_
*254 _091_
*255 _092_
*256 _093_
*257 _094_
*258 _095_
*259 _096_
*260 _097_
*261 _098_
*262 _099_
*263 _100_
*264 _101_
*265 _102_
*266 _103_
*267 _104_
*268 _105_
*269 _106_
*270 _107_
*271 _108_
*272 _109_
*273 _110_
*274 _111_
*275 _112_
*276 _113_
*277 _114_
*278 _115_
*279 _116_
*280 _117_
*281 _118_
*282 _119_
*283 _120_
*284 _121_
*285 _122_
*286 _123_
*287 _124_
*288 _125_
*289 _126_
*290 _127_
*291 _128_
*292 _129_
*293 _130_
*294 _131_
*295 _132_
*296 _133_
*297 _134_
*298 _135_
*299 _136_
*300 _137_
*301 _138_
*302 _139_
*303 _140_
*304 _141_
*305 _142_
*306 _143_
*307 _144_
*308 _145_
*309 _146_
*310 _147_
*311 _148_
*312 _149_
*313 _150_
*314 _151_
*315 _152_
*316 _153_
*317 _154_
*318 clkbuf_0_clk
*319 clkbuf_1_0__f_clk
*320 clkbuf_1_1__f_clk
*321 clkload0
*322 hold1
*323 hold2
*324 input1
*325 input2
*326 input3
*327 input4
*328 input5
*329 input6
*330 input7
*331 input8
*332 input9
*333 output10

*PORTS
clk I
out O
psc[0] I
psc[1] I
psc[2] I
psc[3] I
psc[4] I
psc[5] I
psc[6] I
psc[7] I
rst I

*D_NET *3 0.00326151
*CONN
*P clk I
*I *318:A I *D sky130_fd_sc_hd__clkbuf_16
*CAP
1 clk 0.00159078
2 *318:A 0.00159078
3 *318:A *279:B 3.9977e-05
4 *318:A *313:CLK 3.9977e-05
*RES
1 clk *318:A 21.4118 
*END

*D_NET *4 0.00138391
*CONN
*P out O
*I *333:X O *D sky130_fd_sc_hd__buf_2
*CAP
1 out 0.000491931
2 *333:X 0.000491931
3 out *244:A 0.000259247
4 out *300:B1 9.80173e-05
5 out *331:A 0
6 out *333:A 0
7 out *65:26 0
8 out *96:25 0
9 out *97:23 2.49459e-05
10 out *97:36 1.78353e-05
*RES
1 *333:X out 22.2147 
*END

*D_NET *5 0.000569569
*CONN
*P psc[0] I
*I *324:A I *D sky130_fd_sc_hd__buf_1
*CAP
1 psc[0] 0.000248794
2 *324:A 0.000248794
3 *324:A *255:A_N 2.06178e-05
4 *324:A *257:A2 0
5 *324:A *325:A 2.87684e-05
6 *324:A *326:A 2.25951e-05
*RES
1 psc[0] *324:A 19.0336 
*END

*D_NET *6 0.000643286
*CONN
*P psc[1] I
*I *325:A I *D sky130_fd_sc_hd__dlymetal6s2s_1
*CAP
1 psc[1] 0.000307259
2 *325:A 0.000307259
3 *325:A *255:A_N 0
4 *324:A *325:A 2.87684e-05
*RES
1 psc[1] *325:A 21.0874 
*END

*D_NET *7 0.000612169
*CONN
*P psc[2] I
*I *326:A I *D sky130_fd_sc_hd__buf_1
*CAP
1 psc[2] 0.000294787
2 *326:A 0.000294787
3 *324:A *326:A 2.25951e-05
*RES
1 psc[2] *326:A 20.7838 
*END

*D_NET *8 0.00146292
*CONN
*P psc[3] I
*I *327:A I *D sky130_fd_sc_hd__clkbuf_1
*CAP
1 psc[3] 0.000679953
2 *327:A 0.000679953
3 *327:A *251:A 8.3722e-05
4 *327:A *36:10 1.92905e-05
*RES
1 psc[3] *327:A 26.6571 
*END

*D_NET *9 0.00134467
*CONN
*P psc[4] I
*I *328:A I *D sky130_fd_sc_hd__buf_1
*CAP
1 psc[4] 0.000644283
2 *328:A 0.000644283
3 *328:A *262:A1 3.68142e-05
4 *328:A *329:A 0
5 *328:A *106:8 1.92905e-05
*RES
1 psc[4] *328:A 25.675 
*END

*D_NET *10 0.00115307
*CONN
*P psc[5] I
*I *329:A I *D sky130_fd_sc_hd__buf_1
*CAP
1 psc[5] 0.000547959
2 *329:A 0.000547959
3 *329:A *330:A 0
4 *329:A *106:8 5.71472e-05
5 *328:A *329:A 0
*RES
1 psc[5] *329:A 24.4786 
*END

*D_NET *11 0.00101576
*CONN
*P psc[6] I
*I *330:A I *D sky130_fd_sc_hd__buf_1
*CAP
1 psc[6] 0.000507882
2 *330:A 0.000507882
3 *329:A *330:A 0
*RES
1 psc[6] *330:A 23.6571 
*END

*D_NET *12 0.000728276
*CONN
*P psc[7] I
*I *331:A I *D sky130_fd_sc_hd__dlymetal6s2s_1
*CAP
1 psc[7] 0.000280534
2 *331:A 0.000280534
3 *331:A *97:36 0.000167209
4 out *331:A 0
*RES
1 psc[7] *331:A 19.9443 
*END

*D_NET *13 0.000640689
*CONN
*P rst I
*I *322:A I *D sky130_fd_sc_hd__dlygate4sd3_1
*CAP
1 rst 0.000320345
2 *322:A 0.000320345
3 *322:A *109:12 0
*RES
1 rst *322:A 19.9443 
*END

*D_NET *14 0.00034408
*CONN
*I *310:D I *D sky130_fd_sc_hd__dfrtp_2
*I *271:X O *D sky130_fd_sc_hd__and2b_1
*CAP
1 *310:D 0.000106373
2 *271:X 0.000106373
3 *310:D *88:14 8.00806e-05
4 *310:D *88:21 5.12538e-05
*RES
1 *271:X *310:D 29.4973 
*END

*D_NET *15 0.000565966
*CONN
*I *311:D I *D sky130_fd_sc_hd__dfrtp_2
*I *273:X O *D sky130_fd_sc_hd__and3_1
*CAP
1 *311:D 0.000103162
2 *273:X 0.000103162
3 *311:D *273:C 0.000104908
4 *311:D *274:A 3.74604e-05
5 *311:D *275:A 5.33005e-05
6 *311:D *49:10 7.73662e-05
7 *311:D *65:85 8.66063e-05
8 *311:D *90:23 0
*RES
1 *273:X *311:D 30.9036 
*END

*D_NET *16 0.000462535
*CONN
*I *312:D I *D sky130_fd_sc_hd__dfrtp_2
*I *275:X O *D sky130_fd_sc_hd__and2_1
*CAP
1 *312:D 0.000193944
2 *275:X 0.000193944
3 *312:D *88:8 2.89114e-05
4 *312:D *88:10 4.57352e-05
5 *312:D *90:23 0
*RES
1 *275:X *312:D 30.6 
*END

*D_NET *17 0.000331229
*CONN
*I *313:D I *D sky130_fd_sc_hd__dfrtp_1
*I *279:X O *D sky130_fd_sc_hd__and3_1
*CAP
1 *313:D 0.000122593
2 *279:X 0.000122593
3 *313:D *279:B 1.03037e-05
4 *313:D *313:CLK 7.57394e-05
*RES
1 *279:X *313:D 20.7964 
*END

*D_NET *18 0.00113693
*CONN
*I *314:D I *D sky130_fd_sc_hd__dfrtp_2
*I *282:X O *D sky130_fd_sc_hd__and3_1
*CAP
1 *314:D 0.000308262
2 *282:X 0.000308262
3 *314:D *282:B 0.000224752
4 *314:D *313:CLK 0.000151582
5 *314:D *95:10 0
6 *314:D *109:58 0.000144075
*RES
1 *282:X *314:D 33.3857 
*END

*D_NET *19 0.000589706
*CONN
*I *315:D I *D sky130_fd_sc_hd__dfrtp_1
*I *286:X O *D sky130_fd_sc_hd__and3_1
*CAP
1 *315:D 0.000278984
2 *286:X 0.000278984
3 *315:D *286:B 2.8266e-06
4 *315:D *315:CLK 0
5 *315:D *89:18 0
6 *315:D *94:22 2.89114e-05
7 *315:D *95:10 0
*RES
1 *286:X *315:D 31.9036 
*END

*D_NET *20 0.00118898
*CONN
*I *316:D I *D sky130_fd_sc_hd__dfrtp_1
*I *289:X O *D sky130_fd_sc_hd__and3_1
*CAP
1 *316:D 0.000326258
2 *289:X 0.000326258
3 *316:D *289:C 0.000268396
4 *316:D *89:12 9.91086e-05
5 *316:D *89:18 8.58946e-05
6 *316:D *94:47 0
7 *316:D *109:37 6.80593e-05
8 *316:D *109:100 1.50087e-05
*RES
1 *289:X *316:D 34.2607 
*END

*D_NET *21 0.000277536
*CONN
*I *317:D I *D sky130_fd_sc_hd__dfrtp_2
*I *291:X O *D sky130_fd_sc_hd__and2_1
*CAP
1 *317:D 6.82883e-05
2 *291:X 6.82883e-05
3 *317:D *291:B 5.33978e-05
4 *317:D *65:26 3.18676e-05
5 *317:D *109:100 5.56943e-05
*RES
1 *291:X *317:D 29.475 
*END

*D_NET *22 0.000894833
*CONN
*I *309:D I *D sky130_fd_sc_hd__dfrtp_1
*I *300:Y O *D sky130_fd_sc_hd__a21oi_1
*CAP
1 *309:D 0.000193412
2 *300:Y 0.000193412
3 *309:D *300:A2 0.000183726
4 *309:D *32:10 8.31916e-05
5 *309:D *65:8 5.94737e-05
6 *309:D *96:38 0.000125717
7 *309:D *96:60 5.59013e-05
*RES
1 *300:Y *309:D 32.5241 
*END

*D_NET *23 0.000260264
*CONN
*I *309:RESET_B I *D sky130_fd_sc_hd__dfrtp_1
*I *244:Y O *D sky130_fd_sc_hd__inv_2
*CAP
1 *309:RESET_B 4.12058e-05
2 *244:Y 4.12058e-05
3 *309:RESET_B *244:A 0.000129868
4 *309:RESET_B *97:36 4.79842e-05
*RES
1 *244:Y *309:RESET_B 19.9429 
*END

*D_NET *24 0.000488498
*CONN
*I *310:RESET_B I *D sky130_fd_sc_hd__dfrtp_2
*I *301:Y O *D sky130_fd_sc_hd__inv_2
*CAP
1 *310:RESET_B 0.000134548
2 *301:Y 0.000134548
3 *310:RESET_B *88:21 0.000118441
4 *310:RESET_B *109:64 0.00010096
*RES
1 *301:Y *310:RESET_B 12.2375 
*END

*D_NET *25 0.000250467
*CONN
*I *311:RESET_B I *D sky130_fd_sc_hd__dfrtp_2
*I *302:Y O *D sky130_fd_sc_hd__inv_2
*CAP
1 *311:RESET_B 0.000125234
2 *302:Y 0.000125234
3 *311:RESET_B *90:23 0
4 *311:RESET_B *92:21 0
*RES
1 *302:Y *311:RESET_B 20.55 
*END

*D_NET *26 0.000455925
*CONN
*I *312:RESET_B I *D sky130_fd_sc_hd__dfrtp_2
*I *303:Y O *D sky130_fd_sc_hd__inv_2
*CAP
1 *312:RESET_B 0.000178441
2 *303:Y 0.000178441
3 *312:RESET_B *303:A 9.90431e-05
*RES
1 *303:Y *312:RESET_B 12.2375 
*END

*D_NET *27 0.000288462
*CONN
*I *313:RESET_B I *D sky130_fd_sc_hd__dfrtp_1
*I *304:Y O *D sky130_fd_sc_hd__inv_2
*CAP
1 *313:RESET_B 0.000123339
2 *304:Y 0.000123339
3 *313:RESET_B *93:6 4.17828e-05
*RES
1 *304:Y *313:RESET_B 11.4161 
*END

*D_NET *28 0.000451703
*CONN
*I *314:RESET_B I *D sky130_fd_sc_hd__dfrtp_2
*I *305:Y O *D sky130_fd_sc_hd__inv_2
*CAP
1 *314:RESET_B 7.2275e-05
2 *305:Y 7.2275e-05
3 *314:RESET_B *94:10 4.0552e-05
4 *314:RESET_B *109:58 0.000266602
*RES
1 *305:Y *314:RESET_B 11.8268 
*END

*D_NET *29 0.000862621
*CONN
*I *315:RESET_B I *D sky130_fd_sc_hd__dfrtp_1
*I *306:Y O *D sky130_fd_sc_hd__inv_2
*CAP
1 *315:RESET_B 0.000367188
2 *306:Y 0.000367188
3 *315:RESET_B *315:CLK 7.77652e-05
4 *315:RESET_B *95:10 5.048e-05
*RES
1 *306:Y *315:RESET_B 14.4339 
*END

*D_NET *30 0.000325702
*CONN
*I *316:RESET_B I *D sky130_fd_sc_hd__dfrtp_1
*I *307:Y O *D sky130_fd_sc_hd__inv_2
*CAP
1 *316:RESET_B 0.00011723
2 *307:Y 0.00011723
3 *316:RESET_B *307:A 5.52302e-05
4 *316:RESET_B *96:10 3.60106e-05
*RES
1 *307:Y *316:RESET_B 11.4161 
*END

*D_NET *31 0.000675053
*CONN
*I *317:RESET_B I *D sky130_fd_sc_hd__dfrtp_2
*I *308:Y O *D sky130_fd_sc_hd__inv_2
*CAP
1 *317:RESET_B 0.000301107
2 *308:Y 0.000301107
3 *317:RESET_B *289:C 0
4 *317:RESET_B *290:A 4.57538e-05
5 *317:RESET_B *96:25 0
6 *317:RESET_B *97:23 1.78353e-05
7 *317:RESET_B *109:27 9.25014e-06
*RES
1 *308:Y *317:RESET_B 23.8804 
*END

*D_NET *32 0.00157419
*CONN
*I *292:A I *D sky130_fd_sc_hd__or2_1
*I *299:B2 I *D sky130_fd_sc_hd__a221o_1
*I *236:Y O *D sky130_fd_sc_hd__inv_2
*CAP
1 *292:A 0
2 *299:B2 0.000306257
3 *236:Y 0.000161725
4 *32:10 0.000467982
5 *299:B2 *293:A 4.83735e-05
6 *299:B2 *299:B1 0.000230475
7 *299:B2 *300:A2 3.53079e-05
8 *32:10 *300:A1 9.90431e-05
9 *32:10 *300:A2 0.00014183
10 *309:D *32:10 8.31916e-05
*RES
1 *236:Y *32:10 13.2643 
2 *32:10 *299:B2 14.1571 
3 *32:10 *292:A 9.3 
*END

*D_NET *33 0.00116636
*CONN
*I *293:A I *D sky130_fd_sc_hd__or2_1
*I *299:A1 I *D sky130_fd_sc_hd__a221o_1
*I *237:Y O *D sky130_fd_sc_hd__inv_2
*CAP
1 *293:A 0.000172893
2 *299:A1 0
3 *237:Y 0.000182724
4 *33:12 0.000355617
5 *293:A *299:A2 0.000121439
6 *293:A *299:B1 3.18676e-05
7 *293:A *95:44 0.00018077
8 *33:12 *237:A 1.92789e-05
9 *33:12 *299:C1 0
10 *33:12 *95:48 5.33978e-05
11 *33:12 *96:60 0
12 *299:B2 *293:A 4.83735e-05
*RES
1 *237:Y *33:12 20.7821 
2 *33:12 *299:A1 9.3 
3 *33:12 *293:A 13.5679 
*END

*D_NET *34 0.00102641
*CONN
*I *298:A1 I *D sky130_fd_sc_hd__o221a_1
*I *297:B2 I *D sky130_fd_sc_hd__a22o_1
*I *238:Y O *D sky130_fd_sc_hd__inv_2
*CAP
1 *298:A1 0
2 *297:B2 0.00017388
3 *238:Y 0.000210662
4 *34:10 0.000384542
5 *297:B2 *298:B2 1.00375e-05
6 *297:B2 *298:C1 0.000202128
7 *297:B2 *94:60 0
8 *297:B2 *94:86 0
9 *297:B2 *95:44 2.19778e-05
10 *34:10 *298:C1 2.31791e-05
11 *34:10 *35:23 0
12 *34:10 *94:86 0
*RES
1 *238:Y *34:10 16.8 
2 *34:10 *297:B2 17.6036 
3 *34:10 *298:A1 13.8 
*END

*D_NET *35 0.00321119
*CONN
*I *296:B2 I *D sky130_fd_sc_hd__o221a_1
*I *297:A1 I *D sky130_fd_sc_hd__a22o_1
*I *259:A I *D sky130_fd_sc_hd__xnor2_1
*I *239:Y O *D sky130_fd_sc_hd__inv_2
*CAP
1 *296:B2 0.000275914
2 *297:A1 8.54499e-05
3 *259:A 0.000311134
4 *239:Y 4.82879e-05
5 *35:23 0.000620401
6 *35:6 0.000618459
7 *259:A *251:A 0
8 *259:A *268:A1 0.00031407
9 *259:A *93:55 3.07555e-05
10 *296:B2 *296:A1 9.35114e-06
11 *296:B2 *296:A2 5.47001e-05
12 *296:B2 *296:B1 5.07619e-05
13 *296:B2 *296:C1 0
14 *296:B2 *298:B1 0.000315711
15 *297:A1 *297:A2 4.13122e-06
16 *297:A1 *297:B1 0.000177941
17 *297:A1 *93:36 0
18 *35:6 *268:A1 9.60939e-05
19 *35:23 *238:A 0.000177941
20 *35:23 *297:B1 9.25014e-06
21 *35:23 *298:B2 1.08359e-05
22 *35:23 *298:C1 0
23 *35:23 *93:36 0
24 *35:23 *93:55 0
25 *35:23 *94:86 0
26 *34:10 *35:23 0
*RES
1 *239:Y *35:6 10.2464 
2 *35:6 *259:A 24.1571 
3 *35:6 *35:23 9.48214 
4 *35:23 *297:A1 16.05 
5 *35:23 *296:B2 19.2821 
*END

*D_NET *36 0.0034137
*CONN
*I *251:A I *D sky130_fd_sc_hd__xnor2_1
*I *296:A1 I *D sky130_fd_sc_hd__o221a_1
*I *295:B2 I *D sky130_fd_sc_hd__a221o_1
*I *240:Y O *D sky130_fd_sc_hd__inv_2
*CAP
1 *251:A 0.000240219
2 *296:A1 0.000453538
3 *295:B2 4.34232e-05
4 *240:Y 0
5 *36:10 0.000874995
6 *36:4 0.000618252
7 *251:A *247:A 0
8 *251:A *104:8 9.90431e-05
9 *295:B2 *242:A 0
10 *295:B2 *294:A1 4.1331e-06
11 *295:B2 *295:A1 2.85551e-05
12 *295:B2 *92:62 9.25014e-06
13 *295:B2 *92:71 4.49293e-05
14 *296:A1 *295:A1 9.60939e-05
15 *296:A1 *295:A2 2.57597e-05
16 *296:A1 *296:A2 6.47964e-06
17 *296:A1 *296:B1 7.8195e-05
18 *296:A1 *296:C1 5.57989e-05
19 *296:A1 *92:25 8.53219e-06
20 *36:10 *240:A 1.17968e-05
21 *36:10 *241:A 0.000106987
22 *36:10 *242:A 0
23 *36:10 *247:A 6.75007e-05
24 *36:10 *258:A1 6.60808e-05
25 *36:10 *258:A2 3.25078e-05
26 *36:10 *258:A3 5.83233e-05
27 *36:10 *261:A2 0
28 *36:10 *46:10 0
29 *36:10 *92:71 0.000270943
30 *259:A *251:A 0
31 *296:B2 *296:A1 9.35114e-06
32 *327:A *251:A 8.3722e-05
33 *327:A *36:10 1.92905e-05
*RES
1 *240:Y *36:4 9.3 
2 *36:4 *36:10 13.6607 
3 *36:10 *295:B2 14.8179 
4 *36:10 *296:A1 19.9964 
5 *36:4 *251:A 22.7286 
*END

*D_NET *37 0.00124297
*CONN
*I *295:A1 I *D sky130_fd_sc_hd__a221o_1
*I *294:B2 I *D sky130_fd_sc_hd__o22a_1
*I *241:Y O *D sky130_fd_sc_hd__inv_2
*CAP
1 *295:A1 0.000202334
2 *294:B2 0
3 *241:Y 0.000191159
4 *37:12 0.000393494
5 *295:A1 *295:A2 1.33343e-05
6 *295:A1 *295:C1 9.6087e-05
7 *295:A1 *92:25 8.25843e-06
8 *37:12 *241:A 3.18676e-05
9 *37:12 *242:A 0.000125724
10 *37:12 *256:A2 2.56694e-05
11 *37:12 *257:A1 0
12 *37:12 *91:18 4.46186e-06
13 *37:12 *102:17 2.59355e-05
14 *295:B2 *295:A1 2.85551e-05
15 *296:A1 *295:A1 9.60939e-05
*RES
1 *241:Y *37:12 21.3 
2 *37:12 *294:B2 9.3 
3 *37:12 *295:A1 13.1393 
*END

*D_NET *38 0.00028264
*CONN
*I *294:A1 I *D sky130_fd_sc_hd__o22a_1
*I *242:Y O *D sky130_fd_sc_hd__inv_2
*CAP
1 *294:A1 0.000100566
2 *242:Y 0.000100566
3 *294:A1 *242:A 7.73758e-05
4 *294:A1 *92:21 0
5 *294:A1 *92:62 0
6 *295:B2 *294:A1 4.1331e-06
*RES
1 *242:Y *294:A1 29.5464 
*END

*D_NET *39 0.00070575
*CONN
*I *256:A2 I *D sky130_fd_sc_hd__a31o_1
*I *243:Y O *D sky130_fd_sc_hd__inv_2
*CAP
1 *256:A2 0.000263027
2 *243:Y 0.000263027
3 *256:A2 *242:A 0
4 *256:A2 *257:A1 0
5 *256:A2 *91:20 0.000154027
6 *37:12 *256:A2 2.56694e-05
*RES
1 *243:Y *256:A2 31.8321 
*END

*D_NET *40 0.000222901
*CONN
*I *256:B1 I *D sky130_fd_sc_hd__a31o_1
*I *245:Y O *D sky130_fd_sc_hd__nor2_1
*CAP
1 *256:B1 7.43208e-05
2 *245:Y 7.43208e-05
3 *256:B1 *257:A1 0
4 *256:B1 *98:23 4.46186e-06
5 *256:B1 *102:30 6.97972e-05
*RES
1 *245:Y *256:B1 29.2429 
*END

*D_NET *41 0.00227524
*CONN
*I *251:B I *D sky130_fd_sc_hd__xnor2_1
*I *258:A2 I *D sky130_fd_sc_hd__a32o_1
*I *253:A1 I *D sky130_fd_sc_hd__a21oi_1
*I *246:X O *D sky130_fd_sc_hd__or3_1
*CAP
1 *251:B 0.000271398
2 *258:A2 0.000107586
3 *253:A1 4.95358e-05
4 *246:X 0
5 *41:23 0.000683443
6 *41:4 0.000353995
7 *251:B *247:A 6.62983e-05
8 *251:B *42:8 3.97657e-05
9 *253:A1 *253:A2 1.02504e-05
10 *253:A1 *47:8 6.98302e-05
11 *258:A2 *241:A 0.000125717
12 *258:A2 *258:A3 8.10649e-05
13 *258:A2 *258:B1 3.95807e-06
14 *258:A2 *261:B1 0
15 *258:A2 *261:B2 9.94808e-05
16 *41:23 *246:C 0.000114461
17 *41:23 *247:A 3.69047e-06
18 *41:23 *247:C 3.74658e-05
19 *41:23 *102:40 0.00010946
20 *41:23 *103:30 1.53273e-05
21 *36:10 *258:A2 3.25078e-05
*RES
1 *246:X *41:4 9.3 
2 *41:4 *253:A1 19.3357 
3 *41:4 *41:23 4.80357 
4 *41:23 *258:A2 21.7509 
5 *41:23 *251:B 13.3357 
*END

*D_NET *42 0.00155158
*CONN
*I *262:A2 I *D sky130_fd_sc_hd__o21ai_1
*I *248:C I *D sky130_fd_sc_hd__or3_1
*I *259:B I *D sky130_fd_sc_hd__xnor2_1
*I *247:X O *D sky130_fd_sc_hd__or4_4
*CAP
1 *262:A2 0.000105191
2 *248:C 0
3 *259:B 0
4 *247:X 0.000353276
5 *42:21 0.000309117
6 *42:8 0.000557202
7 *262:A2 *238:A 4.46186e-06
8 *262:A2 *106:12 7.38748e-05
9 *42:8 *247:A 5.52238e-05
10 *42:8 *46:10 1.28239e-05
11 *42:21 *263:A 0
12 *42:21 *263:B 0
13 *42:21 *54:12 4.06423e-05
14 *251:B *42:8 3.97657e-05
*RES
1 *247:X *42:8 15.1929 
2 *42:8 *259:B 9.3 
3 *42:8 *42:21 3.71429 
4 *42:21 *248:C 9.3 
5 *42:21 *262:A2 20.2464 
*END

*D_NET *43 0.00126575
*CONN
*I *266:B I *D sky130_fd_sc_hd__nand2_1
*I *249:B I *D sky130_fd_sc_hd__nor2_2
*I *263:A I *D sky130_fd_sc_hd__and2_1
*I *248:X O *D sky130_fd_sc_hd__or3_1
*CAP
1 *266:B 0.000226939
2 *249:B 0
3 *263:A 1.67212e-05
4 *248:X 6.44772e-05
5 *43:19 0.000389731
6 *43:8 0.000243991
7 *263:A *263:B 1.04232e-05
8 *266:B *250:B 5.71472e-05
9 *266:B *263:B 0
10 *266:B *267:B 5.56943e-05
11 *266:B *44:8 3.35687e-05
12 *266:B *107:10 6.5185e-05
13 *43:8 *263:B 5.62995e-05
14 *43:19 *263:B 3.18676e-05
15 *43:19 *44:8 1.3701e-05
16 *42:21 *263:A 0
*RES
1 *248:X *43:8 10.675 
2 *43:8 *263:A 9.72857 
3 *43:8 *43:19 3.01786 
4 *43:19 *249:B 9.3 
5 *43:19 *266:B 23.05 
*END

*D_NET *44 0.000654251
*CONN
*I *250:B I *D sky130_fd_sc_hd__xnor2_2
*I *267:A_N I *D sky130_fd_sc_hd__and2b_1
*I *249:Y O *D sky130_fd_sc_hd__nor2_2
*CAP
1 *250:B 0.000166598
2 *267:A_N 0
3 *249:Y 0.000108319
4 *44:8 0.000274917
5 *266:B *250:B 5.71472e-05
6 *266:B *44:8 3.35687e-05
7 *43:19 *44:8 1.3701e-05
*RES
1 *249:Y *44:8 10.9786 
2 *44:8 *267:A_N 9.3 
3 *44:8 *250:B 12.3 
*END

*D_NET *45 0.000882838
*CONN
*I *270:A2 I *D sky130_fd_sc_hd__o22ai_4
*I *269:A2 I *D sky130_fd_sc_hd__a22o_1
*I *250:Y O *D sky130_fd_sc_hd__xnor2_2
*CAP
1 *270:A2 0
2 *269:A2 8.57638e-05
3 *250:Y 0.000150658
4 *45:10 0.000236422
5 *269:A2 *250:A 0.000223592
6 *269:A2 *270:B2 6.74911e-05
7 *45:10 *250:A 0.00011891
*RES
1 *250:Y *45:10 16.3893 
2 *45:10 *269:A2 16.6571 
3 *45:10 *270:A2 13.8 
*END

*D_NET *46 0.00103297
*CONN
*I *258:B1 I *D sky130_fd_sc_hd__a32o_1
*I *261:A2 I *D sky130_fd_sc_hd__o221a_1
*I *251:Y O *D sky130_fd_sc_hd__xnor2_1
*CAP
1 *258:B1 0.000220221
2 *261:A2 3.75865e-05
3 *251:Y 0.000113212
4 *46:10 0.00037102
5 *258:B1 *261:B2 4.80466e-05
6 *258:B1 *261:C1 0.000206034
7 *261:A2 *258:B2 2.00664e-05
8 *258:A2 *258:B1 3.95807e-06
9 *36:10 *261:A2 0
10 *36:10 *46:10 0
11 *42:8 *46:10 1.28239e-05
*RES
1 *251:Y *46:10 15.3714 
2 *46:10 *261:A2 14.5321 
3 *46:10 *258:B1 17.5411 
*END

*D_NET *47 0.00121116
*CONN
*I *258:A3 I *D sky130_fd_sc_hd__a32o_1
*I *253:A2 I *D sky130_fd_sc_hd__a21oi_1
*I *252:Y O *D sky130_fd_sc_hd__o21ai_1
*CAP
1 *258:A3 0.000322114
2 *253:A2 2.53178e-05
3 *252:Y 2.60795e-05
4 *47:8 0.000373511
5 *253:A2 *257:A1 0
6 *253:A2 *98:23 1.02504e-05
7 *253:A2 *98:32 4.80729e-05
8 *258:A3 *245:B 4.87854e-05
9 *258:A3 *253:B1 4.91834e-05
10 *258:A3 *261:B2 1.00073e-05
11 *47:8 *98:32 7.83659e-05
12 *253:A1 *253:A2 1.02504e-05
13 *253:A1 *47:8 6.98302e-05
14 *258:A2 *258:A3 8.10649e-05
15 *36:10 *258:A3 5.83233e-05
*RES
1 *252:Y *47:8 14.8357 
2 *47:8 *253:A2 14.5321 
3 *47:8 *258:A3 27.3536 
*END

*D_NET *48 0.000173089
*CONN
*I *257:B1 I *D sky130_fd_sc_hd__a21oi_1
*I *253:Y O *D sky130_fd_sc_hd__a21oi_1
*CAP
1 *257:B1 5.07593e-05
2 *253:Y 5.07593e-05
3 *257:B1 *253:B1 3.9703e-05
4 *257:B1 *98:23 3.18676e-05
*RES
1 *253:Y *257:B1 19.9929 
*END

*D_NET *49 0.00210284
*CONN
*I *257:A1 I *D sky130_fd_sc_hd__a21oi_1
*I *273:A I *D sky130_fd_sc_hd__and3_1
*I *274:B I *D sky130_fd_sc_hd__xnor2_1
*I *254:Y O *D sky130_fd_sc_hd__nand2_1
*CAP
1 *257:A1 0.000415271
2 *273:A 4.03133e-05
3 *274:B 1.24722e-05
4 *254:Y 0
5 *49:10 0.000233122
6 *49:6 0.000595608
7 *257:A1 *255:A_N 0
8 *257:A1 *256:A3 0.000128154
9 *257:A1 *257:A2 0.000150618
10 *257:A1 *261:B1 1.28585e-05
11 *257:A1 *272:B 2.82057e-05
12 *257:A1 *90:62 0
13 *257:A1 *90:77 0
14 *257:A1 *91:18 0
15 *257:A1 *91:33 0.000134738
16 *257:A1 *98:23 0
17 *273:A *274:A 7.69167e-05
18 *273:A *275:A 1.32552e-05
19 *274:B *274:A 1.74352e-05
20 *274:B *275:A 2.89016e-05
21 *49:10 *272:B 5.24274e-05
22 *49:10 *273:C 7.80714e-06
23 *49:10 *311:CLK 7.73662e-05
24 *49:10 *90:23 0
25 *49:10 *90:62 0
26 *253:A2 *257:A1 0
27 *256:A2 *257:A1 0
28 *256:B1 *257:A1 0
29 *311:D *49:10 7.73662e-05
30 *37:12 *257:A1 0
*RES
1 *254:Y *49:6 13.8 
2 *49:6 *49:10 8.57143 
3 *49:10 *274:B 9.83571 
4 *49:10 *273:A 10.5679 
5 *49:6 *257:A1 22.1214 
*END

*D_NET *50 0.000823475
*CONN
*I *256:A3 I *D sky130_fd_sc_hd__a31o_1
*I *255:Y O *D sky130_fd_sc_hd__nand2b_1
*CAP
1 *256:A3 0.000190082
2 *255:Y 0.000190082
3 *256:A3 *255:A_N 0
4 *256:A3 *102:8 0.000315158
5 *257:A1 *256:A3 0.000128154
*RES
1 *255:Y *256:A3 32.2429 
*END

*D_NET *51 0.000750382
*CONN
*I *257:A2 I *D sky130_fd_sc_hd__a21oi_1
*I *256:X O *D sky130_fd_sc_hd__a31o_1
*CAP
1 *257:A2 0.000237353
2 *256:X 0.000237353
3 *257:A2 *255:A_N 0
4 *257:A2 *102:8 0.000125057
5 *257:A1 *257:A2 0.000150618
6 *324:A *257:A2 0
*RES
1 *256:X *257:A2 31.725 
*END

*D_NET *52 0.00202971
*CONN
*I *261:B1 I *D sky130_fd_sc_hd__o221a_1
*I *257:Y O *D sky130_fd_sc_hd__a21oi_1
*CAP
1 *261:B1 0.000981763
2 *257:Y 0.000981763
3 *261:B1 *258:B2 9.54798e-06
4 *261:B1 *261:B2 3.95855e-05
5 *261:B1 *261:C1 4.1896e-06
6 *257:A1 *261:B1 1.28585e-05
7 *258:A2 *261:B1 0
*RES
1 *257:Y *261:B1 37.2661 
*END

*D_NET *53 0.000977858
*CONN
*I *261:B2 I *D sky130_fd_sc_hd__o221a_1
*I *258:X O *D sky130_fd_sc_hd__a32o_1
*CAP
1 *261:B2 0.000278475
2 *258:X 0.000278475
3 *261:B2 *253:B1 0.000181796
4 *261:B2 *261:C1 4.19916e-05
5 *258:A2 *261:B2 9.94808e-05
6 *258:A3 *261:B2 1.00073e-05
7 *258:B1 *261:B2 4.80466e-05
8 *261:B1 *261:B2 3.95855e-05
*RES
1 *258:X *261:B2 24.5286 
*END

*D_NET *54 0.00196609
*CONN
*I *264:A2 I *D sky130_fd_sc_hd__a22o_1
*I *260:B I *D sky130_fd_sc_hd__or2_1
*I *259:Y O *D sky130_fd_sc_hd__xnor2_1
*CAP
1 *264:A2 0.000482176
2 *260:B 0
3 *259:Y 0.00018936
4 *54:12 0.000671536
5 *264:A2 *260:A 0.00026189
6 *264:A2 *264:A1 2.14658e-05
7 *264:A2 *264:B1 0.000186669
8 *264:A2 *268:A1 1.15281e-05
9 *54:12 *238:A 0.000100823
10 *42:21 *54:12 4.06423e-05
*RES
1 *259:Y *54:12 20.9964 
2 *54:12 *260:B 9.3 
3 *54:12 *264:A2 16.3357 
*END

*D_NET *55 0.00100747
*CONN
*I *261:C1 I *D sky130_fd_sc_hd__o221a_1
*I *260:X O *D sky130_fd_sc_hd__or2_1
*CAP
1 *261:C1 0.00026182
2 *260:X 0.00026182
3 *261:C1 *258:B2 5.49544e-05
4 *261:C1 *268:A1 0.000120065
5 *261:C1 *93:55 5.65955e-05
6 *258:B1 *261:C1 0.000206034
7 *261:B1 *261:C1 4.1896e-06
8 *261:B2 *261:C1 4.19916e-05
*RES
1 *260:X *261:C1 24.4929 
*END

*D_NET *56 0.00301007
*CONN
*I *268:A1 I *D sky130_fd_sc_hd__o221a_1
*I *261:X O *D sky130_fd_sc_hd__o221a_1
*CAP
1 *268:A1 0.000829856
2 *261:X 0.000829856
3 *268:A1 *239:A 5.71472e-05
4 *268:A1 *250:A 0
5 *268:A1 *260:A 0.000402521
6 *268:A1 *264:A1 1.4487e-05
7 *268:A1 *264:B1 7.49387e-06
8 *268:A1 *264:B2 0.000138769
9 *268:A1 *270:A1 0
10 *268:A1 *270:B1 3.92757e-05
11 *268:A1 *65:8 0.000148903
12 *259:A *268:A1 0.00031407
13 *261:C1 *268:A1 0.000120065
14 *264:A2 *268:A1 1.15281e-05
15 *35:6 *268:A1 9.60939e-05
*RES
1 *261:X *268:A1 44.7786 
*END

*D_NET *57 0.000887083
*CONN
*I *263:B I *D sky130_fd_sc_hd__and2_1
*I *262:Y O *D sky130_fd_sc_hd__o21ai_1
*CAP
1 *263:B 0.000258287
2 *262:Y 0.000258287
3 *263:B *239:A 5.83233e-05
4 *263:B *262:A1 9.60875e-05
5 *263:B *105:6 4.08637e-05
6 *263:B *105:19 7.6644e-05
7 *263:B *107:10 0
8 *263:A *263:B 1.04232e-05
9 *266:B *263:B 0
10 *42:21 *263:B 0
11 *43:8 *263:B 5.62995e-05
12 *43:19 *263:B 3.18676e-05
*RES
1 *262:Y *263:B 32.3857 
*END

*D_NET *58 0.00124283
*CONN
*I *264:B1 I *D sky130_fd_sc_hd__a22o_1
*I *265:B I *D sky130_fd_sc_hd__or2_1
*I *263:X O *D sky130_fd_sc_hd__and2_1
*CAP
1 *264:B1 3.46717e-05
2 *265:B 0.000228919
3 *263:X 8.50073e-05
4 *58:8 0.000348598
5 *264:B1 *260:A 5.33005e-05
6 *264:B1 *264:A1 5.71472e-05
7 *264:B1 *264:B2 1.74352e-05
8 *265:B *238:A 0
9 *265:B *94:86 0.000223592
10 *58:8 *237:A 0
11 *58:8 *239:A 0
12 *264:A2 *264:B1 0.000186669
13 *268:A1 *264:B1 7.49387e-06
*RES
1 *263:X *58:8 15.1393 
2 *58:8 *265:B 18.3179 
3 *58:8 *264:B1 15.5679 
*END

*D_NET *59 0.000558179
*CONN
*I *268:A2 I *D sky130_fd_sc_hd__o221a_1
*I *264:X O *D sky130_fd_sc_hd__a22o_1
*CAP
1 *268:A2 0.000165732
2 *264:X 0.000165732
3 *268:A2 *237:A 4.57352e-05
4 *268:A2 *268:C1 5.71472e-05
5 *268:A2 *269:B1 2.28499e-05
6 *268:A2 *269:B2 5.52302e-05
7 *268:A2 *62:10 4.57538e-05
*RES
1 *264:X *268:A2 31.4214 
*END

*D_NET *60 0.000146092
*CONN
*I *268:C1 I *D sky130_fd_sc_hd__o221a_1
*I *265:X O *D sky130_fd_sc_hd__or2_1
*CAP
1 *268:C1 4.44724e-05
2 *265:X 4.44724e-05
3 *268:A2 *268:C1 5.71472e-05
*RES
1 *265:X *268:C1 19.5464 
*END

*D_NET *61 0.000289125
*CONN
*I *267:B I *D sky130_fd_sc_hd__and2b_1
*I *266:Y O *D sky130_fd_sc_hd__nand2_1
*CAP
1 *267:B 0.000102264
2 *266:Y 0.000102264
3 *267:B *266:A 2.89016e-05
4 *266:B *267:B 5.56943e-05
*RES
1 *266:Y *267:B 29.475 
*END

*D_NET *62 0.00123308
*CONN
*I *268:B1 I *D sky130_fd_sc_hd__o221a_1
*I *269:B1 I *D sky130_fd_sc_hd__a22o_1
*I *267:X O *D sky130_fd_sc_hd__and2b_1
*CAP
1 *268:B1 0
2 *269:B1 0.000224831
3 *267:X 0.000217717
4 *62:10 0.000442548
5 *269:B1 *269:B2 0.000197271
6 *269:B1 *270:A1 1.33343e-05
7 *62:10 *237:A 0
8 *62:10 *250:A 0
9 *62:10 *270:B1 0
10 *62:10 *65:8 5.85228e-05
11 *62:10 *96:60 1.02504e-05
12 *268:A2 *269:B1 2.28499e-05
13 *268:A2 *62:10 4.57538e-05
*RES
1 *267:X *62:10 22.675 
2 *62:10 *269:B1 13.55 
3 *62:10 *268:B1 9.3 
*END

*D_NET *63 0.000211134
*CONN
*I *270:B1 I *D sky130_fd_sc_hd__o22ai_4
*I *268:X O *D sky130_fd_sc_hd__o221a_1
*CAP
1 *270:B1 5.73804e-05
2 *268:X 5.73804e-05
3 *270:B1 *270:A1 4.79842e-05
4 *270:B1 *65:8 9.11365e-06
5 *268:A1 *270:B1 3.92757e-05
6 *62:10 *270:B1 0
*RES
1 *268:X *270:B1 29.2429 
*END

*D_NET *64 0.000731058
*CONN
*I *270:B2 I *D sky130_fd_sc_hd__o22ai_4
*I *269:X O *D sky130_fd_sc_hd__a22o_1
*CAP
1 *270:B2 0.000331784
2 *269:X 0.000331784
3 *269:A2 *270:B2 6.74911e-05
*RES
1 *269:X *270:B2 33.2071 
*END

*D_NET *65 0.0106631
*CONN
*I *291:A I *D sky130_fd_sc_hd__and2_1
*I *289:A I *D sky130_fd_sc_hd__and3_1
*I *279:A I *D sky130_fd_sc_hd__and3_1
*I *273:B I *D sky130_fd_sc_hd__and3_1
*I *275:A I *D sky130_fd_sc_hd__and2_1
*I *282:A I *D sky130_fd_sc_hd__and3_1
*I *271:B I *D sky130_fd_sc_hd__and2b_1
*I *286:A I *D sky130_fd_sc_hd__and3_1
*I *270:Y O *D sky130_fd_sc_hd__o22ai_4
*CAP
1 *291:A 0
2 *289:A 0
3 *279:A 0
4 *273:B 0
5 *275:A 0.000427298
6 *282:A 0
7 *271:B 0.000523353
8 *286:A 0.000148615
9 *270:Y 0.000565671
10 *65:85 0.000848441
11 *65:79 0.000750286
12 *65:53 0.000629246
13 *65:47 0.00102526
14 *65:41 0.000590224
15 *65:26 0.000744389
16 *65:8 0.00116144
17 *271:B *271:A_N 0.000126629
18 *271:B *90:12 0.000196968
19 *275:A *274:A 7.43045e-06
20 *275:A *275:B 0.000129558
21 *275:A *311:CLK 4.63653e-05
22 *286:A *286:B 6.09572e-05
23 *286:A *286:C 9.71197e-05
24 *286:A *94:22 7.51994e-05
25 *286:A *94:47 0