*SPEF "ieee 1481-1999"
*DESIGN "freq_psc"
*DATE "14:43:20 Monday October 28, 2024"
*VENDOR "The OpenROAD Project"
*PROGRAM "OpenROAD"
*VERSION "edf00dff99f6c40d67a30c0e22a8191c5d2ed9d6"
*DESIGN_FLOW "NAME_SCOPE LOCAL" "PIN_CAP NONE"
*DIVIDER /
*DELIMITER :
*BUS_DELIMITER []
*T_UNIT 1 NS
*C_UNIT 1 PF
*R_UNIT 1 OHM
*L_UNIT 1 HENRY

*NAME_MAP
*3 clk
*4 out
*5 psc[0]
*6 psc[1]
*7 psc[2]
*8 psc[3]
*9 psc[4]
*10 psc[5]
*11 psc[6]
*12 psc[7]
*13 rst
*14 _000_
*15 _001_
*16 _002_
*17 _003_
*18 _004_
*19 _005_
*20 _006_
*21 _007_
*22 _008_
*23 _009_
*24 _010_
*25 _011_
*26 _012_
*27 _013_
*28 _014_
*29 _015_
*30 _016_
*31 _017_
*32 _018_
*33 _019_
*34 _020_
*35 _021_
*36 _022_
*37 _023_
*38 _024_
*39 _025_
*40 _026_
*41 _027_
*42 _028_
*43 _029_
*44 _030_
*45 _031_
*46 _032_
*47 _033_
*48 _034_
*49 _035_
*50 _036_
*51 _037_
*52 _038_
*53 _039_
*54 _040_
*55 _041_
*56 _042_
*57 _043_
*58 _044_
*59 _045_
*60 _046_
*61 _047_
*62 _048_
*63 _049_
*64 _050_
*65 _051_
*66 _052_
*67 _053_
*68 _054_
*69 _055_
*70 _056_
*71 _057_
*72 _058_
*73 _059_
*74 _060_
*75 _061_
*76 _062_
*77 _063_
*78 _064_
*79 _065_
*80 _066_
*81 _067_
*82 _068_
*83 _069_
*84 _070_
*85 _071_
*86 _072_
*87 clknet_0_clk
*88 clknet_1_0__leaf_clk
*89 clknet_1_1__leaf_clk
*90 counter\[0\]
*91 counter\[1\]
*92 counter\[2\]
*93 counter\[3\]
*94 counter\[4\]
*95 counter\[5\]
*96 counter\[6\]
*97 counter\[7\]
*98 net1
*99 net10
*100 net11
*101 net12
*102 net2
*103 net3
*104 net4
*105 net5
*106 net6
*107 net7
*108 net8
*109 net9
*110 FILLER_0_15
*111 FILLER_0_27
*112 FILLER_0_29
*113 FILLER_0_3
*114 FILLER_0_41
*115 FILLER_0_53
*116 FILLER_0_57
*117 FILLER_0_69
*118 FILLER_10_20
*119 FILLER_10_24
*120 FILLER_10_29
*121 FILLER_10_41
*122 FILLER_10_47
*123 FILLER_10_51
*124 FILLER_10_57
*125 FILLER_10_63
*126 FILLER_10_80
*127 FILLER_11_19
*128 FILLER_11_39
*129 FILLER_11_51
*130 FILLER_11_55
*131 FILLER_11_6
*132 FILLER_11_64
*133 FILLER_12_36
*134 FILLER_12_45
*135 FILLER_12_6
*136 FILLER_12_80
*137 FILLER_13_15
*138 FILLER_13_23
*139 FILLER_13_3
*140 FILLER_13_32
*141 FILLER_13_44
*142 FILLER_13_55
*143 FILLER_13_57
*144 FILLER_13_65
*145 FILLER_13_77
*146 FILLER_1_15
*147 FILLER_1_27
*148 FILLER_1_3
*149 FILLER_1_35
*150 FILLER_1_60
*151 FILLER_1_72
*152 FILLER_2_3
*153 FILLER_2_32
*154 FILLER_2_57
*155 FILLER_2_81
*156 FILLER_3_14
*157 FILLER_3_26
*158 FILLER_3_3
*159 FILLER_3_54
*160 FILLER_3_57
*161 FILLER_3_7
*162 FILLER_3_74
*163 FILLER_3_80
*164 FILLER_4_3
*165 FILLER_4_32
*166 FILLER_4_44
*167 FILLER_5_28
*168 FILLER_5_32
*169 FILLER_6_15
*170 FILLER_6_24
*171 FILLER_6_60
*172 FILLER_7_43
*173 FILLER_7_55
*174 FILLER_7_57
*175 FILLER_8_10
*176 FILLER_8_18
*177 FILLER_8_24
*178 FILLER_8_29
*179 FILLER_8_3
*180 FILLER_8_41
*181 FILLER_8_56
*182 FILLER_8_80
*183 FILLER_9_12
*184 FILLER_9_3
*185 FILLER_9_31
*186 FILLER_9_41
*187 FILLER_9_45
*188 FILLER_9_55
*189 FILLER_9_57
*190 FILLER_9_62
*191 FILLER_9_70
*192 PHY_EDGE_ROW_0_Left_14
*193 PHY_EDGE_ROW_0_Right_0
*194 PHY_EDGE_ROW_10_Left_24
*195 PHY_EDGE_ROW_10_Right_10
*196 PHY_EDGE_ROW_11_Left_25
*197 PHY_EDGE_ROW_11_Right_11
*198 PHY_EDGE_ROW_12_Left_26
*199 PHY_EDGE_ROW_12_Right_12
*200 PHY_EDGE_ROW_13_Left_27
*201 PHY_EDGE_ROW_13_Right_13
*202 PHY_EDGE_ROW_1_Left_15
*203 PHY_EDGE_ROW_1_Right_1
*204 PHY_EDGE_ROW_2_Left_16
*205 PHY_EDGE_ROW_2_Right_2
*206 PHY_EDGE_ROW_3_Left_17
*207 PHY_EDGE_ROW_3_Right_3
*208 PHY_EDGE_ROW_4_Left_18
*209 PHY_EDGE_ROW_4_Right_4
*210 PHY_EDGE_ROW_5_Left_19
*211 PHY_EDGE_ROW_5_Right_5
*212 PHY_EDGE_ROW_6_Left_20
*213 PHY_EDGE_ROW_6_Right_6
*214 PHY_EDGE_ROW_7_Left_21
*215 PHY_EDGE_ROW_7_Right_7
*216 PHY_EDGE_ROW_8_Left_22
*217 PHY_EDGE_ROW_8_Right_8
*218 PHY_EDGE_ROW_9_Left_23
*219 PHY_EDGE_ROW_9_Right_9
*220 TAP_TAPCELL_ROW_0_28
*221 TAP_TAPCELL_ROW_0_29
*222 TAP_TAPCELL_ROW_10_39
*223 TAP_TAPCELL_ROW_11_40
*224 TAP_TAPCELL_ROW_12_41
*225 TAP_TAPCELL_ROW_13_42
*226 TAP_TAPCELL_ROW_13_43
*227 TAP_TAPCELL_ROW_1_30
*228 TAP_TAPCELL_ROW_2_31
*229 TAP_TAPCELL_ROW_3_32
*230 TAP_TAPCELL_ROW_4_33
*231 TAP_TAPCELL_ROW_5_34
*232 TAP_TAPCELL_ROW_6_35
*233 TAP_TAPCELL_ROW_7_36
*234 TAP_TAPCELL_ROW_8_37
*235 TAP_TAPCELL_ROW_9_38
*236 _073_
*237 _074_
*238 _075_
*239 _076_
*240 _077_
*241 _078_
*242 _079_
*243 _080_
*244 _081_
*245 _082_
*246 _083_
*247 _084_
*248 _085_
*249 _086_
*250 _087_
*251 _088_
*252 _089_
*253 _090_
*254 _091_
*255 _092_
*256 _093_
*257 _094_
*258 _095_
*259 _096_
*260 _097_
*261 _098_
*262 _099_
*263 _100_
*264 _101_
*265 _102_
*266 _103_
*267 _104_
*268 _105_
*269 _106_
*270 _107_
*271 _108_
*272 _109_
*273 _110_
*274 _111_
*275 _112_
*276 _113_
*277 _114_
*278 _115_
*279 _116_
*280 _117_
*281 _118_
*282 _119_
*283 _120_
*284 _121_
*285 _122_
*286 _123_
*287 _124_
*288 _125_
*289 _126_
*290 _127_
*291 _128_
*292 _129_
*293 _130_
*294 _131_
*295 _132_
*296 _133_
*297 _134_
*298 _135_
*299 _136_
*300 _137_
*301 _138_
*302 _139_
*303 _140_
*304 _141_
*305 _142_
*306 _143_
*307 _144_
*308 _145_
*309 _146_
*310 _147_
*311 _148_
*312 _149_
*313 _150_
*314 _151_
*315 _152_
*316 _153_
*317 _154_
*318 clkbuf_0_clk
*319 clkbuf_1_0__f_clk
*320 clkbuf_1_1__f_clk
*321 clkload0
*322 hold1
*323 hold2
*324 input1
*325 input2
*326 input3
*327 input4
*328 input5
*329 input6
*330 input7
*331 input8
*332 input9
*333 output10

*PORTS
clk I
out O
psc[0] I
psc[1] I
psc[2] I
psc[3] I
psc[4] I
psc[5] I
psc[6] I
psc[7] I
rst I

*D_NET *3 0.00353358
*CONN
*P clk I
*I *318:A I *D sky130_fd_sc_hd__clkbuf_16
*CAP
1 clk 0.00172578
2 *318:A 0
3 *3:11 0.00172578
4 *3:11 *69:8 4.10168e-05
5 *3:11 *88:40 4.10168e-05
*RES
1 clk *3:11 27.969 
2 *3:11 *318:A 23 
*END

*D_NET *4 0.00147913
*CONN
*P out O
*I *333:X O *D sky130_fd_sc_hd__buf_2
*CAP
1 out 0.000344503
2 *333:X 0.000194219
3 *4:10 0.000538722
4 out *331:A 0
5 *4:10 *65:26 0
6 *4:10 *96:25 0
7 *4:10 *97:23 2.50347e-05
8 *4:10 *97:36 1.7992e-05
9 *4:10 *99:10 0
10 *4:10 *101:10 9.75779e-05
11 *4:10 *109:117 0.000261079
*RES
1 *333:X *4:10 42.7332 
2 *4:10 out 9.10133 
*END

*D_NET *5 0.00060633
*CONN
*P psc[0] I
*I *324:A I *D sky130_fd_sc_hd__buf_1
*CAP
1 psc[0] 0.000267261
2 *324:A 0.000267261
3 *324:A *6:17 2.79122e-05
4 *324:A *7:17 2.12457e-05
5 *324:A *51:10 0
6 *324:A *98:12 2.26497e-05
*RES
1 psc[0] *324:A 48.1354 
*END

*D_NET *6 0.000690822
*CONN
*P psc[1] I
*I *325:A I *D sky130_fd_sc_hd__dlymetal6s2s_1
*CAP
1 psc[1] 0.000331455
2 *325:A 0
3 *6:17 0.000331455
4 *6:17 *98:12 0
5 *324:A *6:17 2.79122e-05
*RES
1 psc[1] *6:17 27.5105 
2 *6:17 *325:A 23 
*END

*D_NET *7 0.000658406
*CONN
*P psc[2] I
*I *326:A I *D sky130_fd_sc_hd__buf_1
*CAP
1 psc[2] 0.00031858
2 *326:A 0
3 *7:17 0.00031858
4 *324:A *7:17 2.12457e-05
*RES
1 psc[2] *7:17 27.1584 
2 *7:17 *326:A 23 
*END

*D_NET *8 0.00155627
*CONN
*P psc[3] I
*I *327:A I *D sky130_fd_sc_hd__clkbuf_1
*CAP
1 psc[3] 0.000726069
2 *327:A 0
3 *8:11 0.000726069
4 *8:11 *36:10 1.94812e-05
5 *8:11 *36:40 8.46456e-05
*RES
1 psc[3] *8:11 29.9143 
2 *8:11 *327:A 23 
*END

*D_NET *9 0.00141581
*CONN
*P psc[4] I
*I *328:A I *D sky130_fd_sc_hd__buf_1
*CAP
1 psc[4] 0.000679934
2 *328:A 0
3 *9:15 0.000679934
4 *9:15 *262:A1 3.64617e-05
5 *9:15 *10:9 0
6 *9:15 *106:8 1.94812e-05
*RES
1 psc[4] *9:15 28.775 
2 *9:15 *328:A 23 
*END

*D_NET *10 0.00122017
*CONN
*P psc[5] I
*I *329:A I *D sky130_fd_sc_hd__buf_1
*CAP
1 psc[5] 0.000581731
2 *329:A 0
3 *10:9 0.000581731
4 *10:9 *330:A 0
5 *10:9 *106:8 5.67058e-05
6 *9:15 *10:9 0
*RES
1 psc[5] *10:9 27.3871 
2 *10:9 *329:A 23 
*END

*D_NET *11 0.00107746
*CONN
*P psc[6] I
*I *330:A I *D sky130_fd_sc_hd__buf_1
*CAP
1 psc[6] 0.000538731
2 *330:A 0.000538731
3 *10:9 *330:A 0
*RES
1 psc[6] *330:A 49.4343 
*END

*D_NET *12 0.000790651
*CONN
*P psc[7] I
*I *331:A I *D sky130_fd_sc_hd__dlymetal6s2s_1
*CAP
1 psc[7] 0.000302424
2 *331:A 0.000302424
3 *331:A *97:36 0.000185803
4 out *331:A 0
*RES
1 psc[7] *331:A 49.1918 
*END

*D_NET *13 0.000691493
*CONN
*P rst I
*I *322:A I *D sky130_fd_sc_hd__dlygate4sd3_1
*CAP
1 rst 0.000345746
2 *322:A 0.000345746
3 *322:A *109:12 0
*RES
1 rst *322:A 49.1918 
*END

*D_NET *14 0.00037729
*CONN
*I *310:D I *D sky130_fd_sc_hd__dfrtp_2
*I *271:X O *D sky130_fd_sc_hd__and2b_1
*CAP
1 *310:D 6.2347e-05
2 *271:X 5.60739e-05
3 *14:8 0.000118421
4 *310:D *88:21 5.19297e-05
5 *14:8 *88:14 8.85189e-05
*RES
1 *271:X *14:8 39.2014 
2 *14:8 *310:D 38.9995 
*END

*D_NET *15 0.000630227
*CONN
*I *311:D I *D sky130_fd_sc_hd__dfrtp_2
*I *273:X O *D sky130_fd_sc_hd__and3_1
*CAP
1 *311:D 0
2 *273:X 0.000129099
3 *15:10 0.000129099
4 *15:10 *273:C 5.83345e-06
5 *15:10 *274:A 3.75698e-05
6 *15:10 *49:10 8.05936e-05
7 *15:10 *65:85 8.60475e-05
8 *15:10 *65:93 5.3304e-05
9 *15:10 *66:10 0.000108681
10 *15:10 *90:23 0
*RES
1 *273:X *15:10 41.8321 
2 *15:10 *311:D 38 
*END

*D_NET *16 0.000506543
*CONN
*I *312:D I *D sky130_fd_sc_hd__dfrtp_2
*I *275:X O *D sky130_fd_sc_hd__and2_1
*CAP
1 *312:D 0
2 *275:X 0.000215638
3 *16:10 0.000215638
4 *16:10 *88:8 2.93845e-05
5 *16:10 *88:10 4.5882e-05
6 *16:10 *90:23 0
*RES
1 *275:X *16:10 41.48 
2 *16:10 *312:D 38 
*END

*D_NET *17 0.000363619
*CONN
*I *313:D I *D sky130_fd_sc_hd__dfrtp_1
*I *279:X O *D sky130_fd_sc_hd__and3_1
*CAP
1 *313:D 0.00013751
2 *279:X 0.00013751
3 *313:D *279:B 9.87385e-06
4 *313:D *88:40 7.87243e-05
*RES
1 *279:X *313:D 48.5479 
*END

*D_NET *18 0.0012324
*CONN
*I *314:D I *D sky130_fd_sc_hd__dfrtp_2
*I *282:X O *D sky130_fd_sc_hd__and3_1
*CAP
1 *314:D 4.28776e-05
2 *282:X 0.000303935
3 *18:10 0.000346812
4 *314:D *88:40 3.22051e-05
5 *314:D *109:58 0.000145236
6 *18:10 *71:8 0.000228168
7 *18:10 *88:40 0.00013317
8 *18:10 *95:10 0
*RES
1 *282:X *18:10 43.1371 
2 *18:10 *314:D 39.5743 
*END

*D_NET *19 0.000665566
*CONN
*I *315:D I *D sky130_fd_sc_hd__dfrtp_1
*I *286:X O *D sky130_fd_sc_hd__and3_1
*CAP
1 *315:D 0
2 *286:X 0.000316708
3 *19:10 0.000316708
4 *19:10 *315:CLK 0
5 *19:10 *74:8 2.76611e-06
6 *19:10 *89:18 0
7 *19:10 *94:22 2.93845e-05
8 *19:10 *95:10 0
*RES
1 *286:X *19:10 42.9921 
2 *19:10 *315:D 38 
*END

*D_NET *20 0.00128759
*CONN
*I *316:D I *D sky130_fd_sc_hd__dfrtp_1
*I *289:X O *D sky130_fd_sc_hd__and3_1
*CAP
1 *316:D 0
2 *289:X 0.000370409
3 *20:10 0.000370409
4 *20:10 *289:C 0.000267167
5 *20:10 *89:12 0.000108681
6 *20:10 *89:18 8.68472e-05
7 *20:10 *94:47 0
8 *20:10 *109:37 6.88552e-05
9 *20:10 *109:100 1.52259e-05
*RES
1 *289:X *20:10 45.7264 
2 *20:10 *316:D 38 
*END

*D_NET *21 0.000310862
*CONN
*I *317:D I *D sky130_fd_sc_hd__dfrtp_2
*I *291:X O *D sky130_fd_sc_hd__and2_1
*CAP
1 *317:D 3.02401e-05
2 *291:X 5.21835e-05
3 *21:8 8.24236e-05
4 *317:D *65:26 3.22879e-05
5 *21:8 *78:10 5.56306e-05
6 *21:8 *109:100 5.80963e-05
*RES
1 *291:X *21:8 39.5536 
2 *21:8 *317:D 38.6214 
*END

*D_NET *22 0.000984556
*CONN
*I *309:D I *D sky130_fd_sc_hd__dfrtp_1
*I *300:Y O *D sky130_fd_sc_hd__a21oi_1
*CAP
1 *309:D 0
2 *300:Y 0.000229565
3 *22:10 0.000229565
4 *22:10 *300:A2 0.000182832
5 *22:10 *32:10 8.29045e-05
6 *22:10 *65:8 5.93278e-05
7 *22:10 *96:38 0.000138708
8 *22:10 *96:60 6.16531e-05
*RES
1 *300:Y *22:10 43.712 
2 *22:10 *309:D 38 
*END

*D_NET *23 0.000293844
*CONN
*I *309:RESET_B I *D sky130_fd_sc_hd__dfrtp_1
*I *244:Y O *D sky130_fd_sc_hd__inv_2
*CAP
1 *309:RESET_B 0
2 *244:Y 5.06783e-05
3 *23:8 5.06783e-05
4 *23:8 *97:36 4.83778e-05
5 *23:8 *109:117 0.00014411
*RES
1 *244:Y *23:8 39.9057 
2 *23:8 *309:RESET_B 15 
*END

*D_NET *24 0.000501261
*CONN
*I *310:RESET_B I *D sky130_fd_sc_hd__dfrtp_2
*I *301:Y O *D sky130_fd_sc_hd__inv_2
*CAP
1 *310:RESET_B 0.000140539
2 *301:Y 0.000140539
3 *310:RESET_B *88:21 0.000120003
4 *310:RESET_B *109:64 0.00010018
*RES
1 *301:Y *310:RESET_B 26.4075 
*END

*D_NET *25 0.000276172
*CONN
*I *311:RESET_B I *D sky130_fd_sc_hd__dfrtp_2
*I *302:Y O *D sky130_fd_sc_hd__inv_2
*CAP
1 *311:RESET_B 0
2 *302:Y 0.000138086
3 *25:8 0.000138086
4 *25:8 *90:23 0
5 *25:8 *92:21 0
*RES
1 *302:Y *25:8 40.61 
2 *25:8 *311:RESET_B 15 
*END

*D_NET *26 0.000479454
*CONN
*I *312:RESET_B I *D sky130_fd_sc_hd__dfrtp_2
*I *303:Y O *D sky130_fd_sc_hd__inv_2
*CAP
1 *312:RESET_B 0.000190484
2 *303:Y 0.000190484
3 *312:RESET_B *303:A 9.84851e-05
*RES
1 *303:Y *312:RESET_B 26.4075 
*END

*D_NET *27 0.000307039
*CONN
*I *313:RESET_B I *D sky130_fd_sc_hd__dfrtp_1
*I *304:Y O *D sky130_fd_sc_hd__inv_2
*CAP
1 *313:RESET_B 0.000132567
2 *304:Y 0.000132567
3 *313:RESET_B *93:6 4.19048e-05
*RES
1 *304:Y *313:RESET_B 25.4546 
*END

*D_NET *28 0.000469008
*CONN
*I *314:RESET_B I *D sky130_fd_sc_hd__dfrtp_2
*I *305:Y O *D sky130_fd_sc_hd__inv_2
*CAP
1 *314:RESET_B 8.18086e-05
2 *305:Y 8.18086e-05
3 *314:RESET_B *94:10 4.05309e-05
4 *314:RESET_B *109:58 0.00026486
*RES
1 *305:Y *314:RESET_B 25.9311 
*END

*D_NET *29 0.000889254
*CONN
*I *315:RESET_B I *D sky130_fd_sc_hd__dfrtp_1
*I *306:Y O *D sky130_fd_sc_hd__inv_2
*CAP
1 *315:RESET_B 0.000380141
2 *306:Y 0.000380141
3 *315:RESET_B *315:CLK 7.88828e-05
4 *315:RESET_B *95:10 5.00902e-05
*RES
1 *306:Y *315:RESET_B 28.9554 
*END

*D_NET *30 0.000346375
*CONN
*I *316:RESET_B I *D sky130_fd_sc_hd__dfrtp_1
*I *307:Y O *D sky130_fd_sc_hd__inv_2
*CAP
1 *316:RESET_B 0.000127662
2 *307:Y 0.000127662
3 *316:RESET_B *307:A 5.50106e-05
4 *316:RESET_B *96:10 3.60411e-05
*RES
1 *307:Y *316:RESET_B 25.4546 
*END

*D_NET *31 0.000756658
*CONN
*I *317:RESET_B I *D sky130_fd_sc_hd__dfrtp_2
*I *308:Y O *D sky130_fd_sc_hd__inv_2
*CAP
1 *317:RESET_B 6.25089e-05
2 *308:Y 0.000278801
3 *31:8 0.00034131
4 *31:8 *77:8 0
5 *31:8 *96:25 0
6 *31:8 *97:16 4.59027e-05
7 *31:8 *97:23 1.7992e-05
8 *31:8 *109:27 1.01436e-05
*RES
1 *308:Y *31:8 43.4271 
2 *31:8 *317:RESET_B 16.0461 
*END

*D_NET *32 0.00163251
*CONN
*I *292:A I *D sky130_fd_sc_hd__or2_1
*I *299:B2 I *D sky130_fd_sc_hd__a221o_1
*I *236:Y O *D sky130_fd_sc_hd__inv_2
*CAP
1 *292:A 0
2 *299:B2 0.0003217
3 *236:Y 0.000176686
4 *32:10 0.000498386
5 *299:B2 *293:A 4.84321e-05
6 *299:B2 *299:B1 0.000228903
7 *299:B2 *300:A2 3.59635e-05
8 *32:10 *300:A1 9.84851e-05
9 *32:10 *300:A2 0.000141052
10 *22:10 *32:10 8.29045e-05
*RES
1 *236:Y *32:10 27.5986 
2 *32:10 *299:B2 28.6343 
3 *32:10 *292:A 23 
*END

*D_NET *33 0.00129077
*CONN
*I *293:A I *D sky130_fd_sc_hd__or2_1
*I *299:A1 I *D sky130_fd_sc_hd__a221o_1
*I *237:Y O *D sky130_fd_sc_hd__inv_2
*CAP
1 *293:A 0.000195187
2 *299:A1 0
3 *237:Y 0.000219985
4 *33:12 0.000195187
5 *33:10 0.000219985
6 *293:A *299:A2 0.000124387
7 *293:A *299:B1 3.22879e-05
8 *293:A *95:44 0.000180218
9 *33:10 *237:A 1.94693e-05
10 *33:10 *85:10 0
11 *33:10 *95:48 5.56306e-05
12 *33:10 *96:60 0
13 *299:B2 *293:A 4.84321e-05
*RES
1 *237:Y *33:10 40.8793 
2 *33:10 *33:12 15 
3 *33:12 *299:A1 23 
4 *33:12 *293:A 27.9507 
*END

*D_NET *34 0.00113413
*CONN
*I *298:A1 I *D sky130_fd_sc_hd__o221a_1
*I *297:B2 I *D sky130_fd_sc_hd__a22o_1
*I *238:Y O *D sky130_fd_sc_hd__inv_2
*CAP
1 *298:A1 0
2 *297:B2 0.000197031
3 *238:Y 0.000228851
4 *34:10 0.000425881
5 *297:B2 *80:8 0.000224345
6 *297:B2 *84:10 1.02387e-05
7 *297:B2 *94:60 0
8 *297:B2 *94:86 0
9 *297:B2 *95:44 2.22183e-05
10 *34:10 *35:23 0
11 *34:10 *80:8 2.55642e-05
12 *34:10 *94:86 0
*RES
1 *238:Y *34:10 41.48 
2 *34:10 *297:B2 42.4121 
3 *34:10 *298:A1 38 
*END

*D_NET *35 0.00350756
*CONN
*I *296:B2 I *D sky130_fd_sc_hd__o221a_1
*I *297:A1 I *D sky130_fd_sc_hd__a22o_1
*I *259:A I *D sky130_fd_sc_hd__xnor2_1
*I *239:Y O *D sky130_fd_sc_hd__inv_2
*CAP
1 *296:B2 0.000303304
2 *297:A1 9.86551e-05
3 *259:A 0
4 *239:Y 5.72667e-05
5 *35:23 0.000696565
6 *35:14 0.000347134
7 *35:6 0.000699007
8 *296:B2 *296:A1 9.03364e-06
9 *296:B2 *296:B1 5.25022e-05
10 *296:B2 *296:C1 0
11 *296:B2 *83:8 0.000321267
12 *296:B2 *92:55 5.52998e-05
13 *297:A1 *93:36 0
14 *297:A1 *93:87 4.2812e-06
15 *297:A1 *94:74 0.00019747
16 *35:6 *56:18 9.5877e-05
17 *35:14 *36:40 0
18 *35:14 *56:18 0.000318946
19 *35:14 *93:55 3.20914e-05
20 *35:23 *238:A 0.00019747
21 *35:23 *80:8 0
22 *35:23 *84:10 1.12487e-05
23 *35:23 *93:36 0
24 *35:23 *93:55 0
25 *35:23 *94:74 1.01436e-05
26 *35:23 *94:86 0
27 *34:10 *35:23 0
*RES
1 *239:Y *35:6 24.0979 
2 *35:6 *35:14 36.7943 
3 *35:14 *259:A 23 
4 *35:6 *35:23 20.7793 
5 *35:23 *297:A1 40.61 
6 *35:23 *296:B2 44.3593 
*END

*D_NET *36 0.00378194
*CONN
*I *251:A I *D sky130_fd_sc_hd__xnor2_1
*I *296:A1 I *D sky130_fd_sc_hd__o221a_1
*I *295:B2 I *D sky130_fd_sc_hd__a221o_1
*I *240:Y O *D sky130_fd_sc_hd__inv_2
*CAP
1 *251:A 0
2 *296:A1 0.000480863
3 *295:B2 5.23432e-05
4 *240:Y 0
5 *36:40 0.000278366
6 *36:10 0.00099302
7 *36:4 0.00073818
8 *295:B2 *242:A 0
9 *295:B2 *295:A1 2.85422e-05
10 *295:B2 *38:8 4.21594e-06
11 *295:B2 *92:62 1.01436e-05
12 *295:B2 *92:71 4.92689e-05
13 *296:A1 *295:A1 9.5877e-05
14 *296:A1 *295:A2 2.60994e-05
15 *296:A1 *296:B1 8.15864e-05
16 *296:A1 *296:C1 5.70006e-05
17 *296:A1 *92:25 8.44855e-06
18 *296:A1 *92:55 6.03109e-06
19 *36:10 *240:A 1.22803e-05
20 *36:10 *242:A 0
21 *36:10 *247:A 7.03869e-05
22 *36:10 *258:A1 7.19687e-05
23 *36:10 *261:A2 0
24 *36:10 *41:35 3.3746e-05
25 *36:10 *46:10 0
26 *36:10 *47:25 6.48049e-05
27 *36:10 *92:71 0.000300098
28 *36:10 *103:38 0.000107029
29 *36:40 *247:A 0
30 *36:40 *104:8 9.84851e-05
31 *296:B2 *296:A1 9.03364e-06
32 *8:11 *36:10 1.94812e-05
33 *8:11 *36:40 8.46456e-05
34 *35:14 *36:40 0
*RES
1 *240:Y *36:4 23 
2 *36:4 *36:10 25.6264 
3 *36:10 *295:B2 39.1807 
4 *36:10 *296:A1 45.1879 
5 *36:4 *36:40 35.1371 
6 *36:40 *251:A 23 
*END

*D_NET *37 0.00139249
*CONN
*I *295:A1 I *D sky130_fd_sc_hd__a221o_1
*I *294:B2 I *D sky130_fd_sc_hd__o22a_1
*I *241:Y O *D sky130_fd_sc_hd__inv_2
*CAP
1 *295:A1 0.000230587
2 *294:B2 0
3 *241:Y 0.000230224
4 *37:12 0.000230587
5 *37:10 0.000230224
6 *295:A1 *295:A2 1.32314e-05
7 *295:A1 *295:C1 9.76358e-05
8 *295:A1 *92:25 8.06804e-06
9 *37:10 *242:A 0.000138718
10 *37:10 *257:A1 0
11 *37:10 *39:10 2.5415e-05
12 *37:10 *91:16 4.6318e-06
13 *37:10 *102:17 2.64616e-05
14 *37:10 *103:38 3.22879e-05
15 *295:B2 *295:A1 2.85422e-05
16 *296:A1 *295:A1 9.5877e-05
*RES
1 *241:Y *37:10 41.48 
2 *37:10 *37:12 15 
3 *37:12 *294:B2 23 
4 *37:12 *295:A1 27.4536 
*END

*D_NET *38 0.000323894
*CONN
*I *294:A1 I *D sky130_fd_sc_hd__o22a_1
*I *242:Y O *D sky130_fd_sc_hd__inv_2
*CAP
1 *294:A1 0
2 *242:Y 0.000119537
3 *38:8 0.000119537
4 *38:8 *242:A 8.06039e-05
5 *38:8 *92:21 0
6 *38:8 *92:62 0
7 *295:B2 *38:8 4.21594e-06
*RES
1 *242:Y *38:8 40.2579 
2 *38:8 *294:A1 38 
*END

*D_NET *39 0.000742356
*CONN
*I *256:A2 I *D sky130_fd_sc_hd__a31o_1
*I *243:Y O *D sky130_fd_sc_hd__inv_2
*CAP
1 *256:A2 0
2 *243:Y 0.000280441
3 *39:10 0.000280441
4 *39:10 *242:A 0
5 *39:10 *257:A1 0
6 *39:10 *91:20 0.000156058
7 *37:10 *39:10 2.5415e-05
*RES
1 *243:Y *39:10 42.9093 
2 *39:10 *256:A2 38 
*END

*D_NET *40 0.000255545
*CONN
*I *256:B1 I *D sky130_fd_sc_hd__a31o_1
*I *245:Y O *D sky130_fd_sc_hd__nor2_1
*CAP
1 *256:B1 0
2 *245:Y 8.90304e-05
3 *40:8 8.90304e-05
4 *40:8 *257:A1 0
5 *40:8 *98:23 4.6318e-06
6 *40:8 *102:30 7.28526e-05
*RES
1 *245:Y *40:8 39.9057 
2 *40:8 *256:B1 38 
*END

*D_NET *41 0.00246796
*CONN
*I *251:B I *D sky130_fd_sc_hd__xnor2_1
*I *258:A2 I *D sky130_fd_sc_hd__a32o_1
*I *253:A1 I *D sky130_fd_sc_hd__a21oi_1
*I *246:X O *D sky130_fd_sc_hd__or3_1
*CAP
1 *251:B 0.000285936
2 *258:A2 0
3 *253:A1 0
4 *246:X 0
5 *41:35 0.000132995
6 *41:23 0.000752714
7 *41:10 6.14794e-05
8 *41:4 0.000395263
9 *251:B *247:A 6.70017e-05
10 *251:B *42:8 3.98818e-05
11 *41:10 *253:A2 1.14452e-05
12 *41:10 *47:8 7.70737e-05
13 *41:23 *246:C 0.000114156
14 *41:23 *247:A 3.7122e-06
15 *41:23 *247:C 3.80087e-05
16 *41:23 *102:40 0.000109895
17 *41:23 *103:30 1.52322e-05
18 *41:35 *258:B1 3.95919e-06
19 *41:35 *261:B1 0
20 *41:35 *47:25 8.78341e-05
21 *41:35 *53:12 9.89236e-05
22 *41:35 *103:38 0.000138708
23 *36:10 *41:35 3.3746e-05
*RES
1 *246:X *41:4 23 
2 *41:4 *41:10 31.2014 
3 *41:10 *253:A1 23 
4 *41:4 *41:23 5.57214 
5 *41:23 *41:35 34.003 
6 *41:35 *258:A2 23 
7 *41:23 *251:B 27.6814 
*END

*D_NET *42 0.00170926
*CONN
*I *262:A2 I *D sky130_fd_sc_hd__o21ai_1
*I *248:C I *D sky130_fd_sc_hd__or3_1
*I *259:B I *D sky130_fd_sc_hd__xnor2_1
*I *247:X O *D sky130_fd_sc_hd__or4_4
*CAP
1 *262:A2 0
2 *248:C 0
3 *259:B 0
4 *247:X 0.000379946
5 *42:32 0.000132039
6 *42:21 0.000359805
7 *42:8 0.000607712
8 *42:8 *247:A 5.50049e-05
9 *42:8 *46:10 1.23353e-05
10 *42:21 *263:A 0
11 *42:21 *263:B 0
12 *42:21 *54:10 4.09035e-05
13 *42:32 *238:A 4.6318e-06
14 *42:32 *106:12 7.70038e-05
15 *251:B *42:8 3.98818e-05
*RES
1 *247:X *42:8 29.8357 
2 *42:8 *259:B 23 
3 *42:8 *42:21 4.30857 
4 *42:21 *248:C 23 
5 *42:21 *42:32 32.2579 
6 *42:32 *262:A2 23 
*END

*D_NET *43 0.00137182
*CONN
*I *266:B I *D sky130_fd_sc_hd__nand2_1
*I *249:B I *D sky130_fd_sc_hd__nor2_2
*I *263:A I *D sky130_fd_sc_hd__and2_1
*I *248:X O *D sky130_fd_sc_hd__or3_1
*CAP
1 *266:B 0
2 *249:B 0
3 *263:A 1.75705e-05
4 *248:X 6.76291e-05
5 *43:34 0.00026246
6 *43:19 0.000435193
7 *43:8 0.000257933
8 *263:A *263:B 1.14154e-05
9 *43:8 *263:B 5.70419e-05
10 *43:19 *263:B 3.22879e-05
11 *43:19 *44:8 1.37232e-05
12 *43:34 *250:B 5.67058e-05
13 *43:34 *263:B 0
14 *43:34 *44:8 3.38674e-05
15 *43:34 *61:10 5.80963e-05
16 *43:34 *107:10 6.79006e-05
17 *42:21 *263:A 0
*RES
1 *248:X *43:8 24.595 
2 *43:8 *263:A 23.4971 
3 *43:8 *43:19 3.50071 
4 *43:19 *249:B 23 
5 *43:19 *43:34 35.51 
6 *43:34 *266:B 23 
*END

*D_NET *44 0.000692875
*CONN
*I *250:B I *D sky130_fd_sc_hd__xnor2_2
*I *267:A_N I *D sky130_fd_sc_hd__and2b_1
*I *249:Y O *D sky130_fd_sc_hd__nor2_2
*CAP
1 *250:B 0.000177461
2 *267:A_N 0
3 *249:Y 0.000116828
4 *44:8 0.000294289
5 *43:19 *44:8 1.37232e-05
6 *43:34 *250:B 5.67058e-05
7 *43:34 *44:8 3.38674e-05
*RES
1 *249:Y *44:8 24.9471 
2 *44:8 *267:A_N 23 
3 *44:8 *250:B 26.48 
*END

*D_NET *45 0.00098664
*CONN
*I *270:A2 I *D sky130_fd_sc_hd__o22ai_4
*I *269:A2 I *D sky130_fd_sc_hd__a22o_1
*I *250:Y O *D sky130_fd_sc_hd__xnor2_2
*CAP
1 *270:A2 0
2 *269:A2 0.000102361
3 *250:Y 0.000166059
4 *45:10 0.000268421
5 *269:A2 *250:A 0.000247678
6 *269:A2 *64:8 7.03766e-05
7 *45:10 *250:A 0.000131744
*RES
1 *250:Y *45:10 41.0036 
2 *45:10 *269:A2 41.3143 
3 *45:10 *270:A2 38 
*END

*D_NET *46 0.00109923
*CONN
*I *258:B1 I *D sky130_fd_sc_hd__a32o_1
*I *261:A2 I *D sky130_fd_sc_hd__o221a_1
*I *251:Y O *D sky130_fd_sc_hd__xnor2_1
*CAP
1 *258:B1 0.000229271
2 *261:A2 4.18341e-05
3 *251:Y 0.000130774
4 *46:10 0.000401879
5 *258:B1 *53:12 4.84569e-05
6 *258:B1 *55:8 0.000208152
7 *261:A2 *93:69 2.25726e-05
8 *36:10 *261:A2 0
9 *36:10 *46:10 0
10 *41:35 *258:B1 3.95919e-06
11 *42:8 *46:10 1.23353e-05
*RES
1 *251:Y *46:10 39.8229 
2 *46:10 *261:A2 38.8493 
3 *46:10 *258:B1 42.3396 
*END

*D_NET *47 0.00133458
*CONN
*I *258:A3 I *D sky130_fd_sc_hd__a32o_1
*I *253:A2 I *D sky130_fd_sc_hd__a21oi_1
*I *252:Y O *D sky130_fd_sc_hd__o21ai_1
*CAP
1 *258:A3 0
2 *253:A2 2.83068e-05
3 *252:Y 3.47985e-05
4 *47:25 0.000353798
5 *47:8 0.000416903
6 *253:A2 *257:A1 0
7 *253:A2 *98:23 1.14452e-05
8 *253:A2 *98:32 5.33597e-05
9 *47:8 *98:32 8.62876e-05
10 *47:25 *245:B 4.9662e-05
11 *47:25 *253:B1 4.89641e-05
12 *47:25 *53:12 9.8971e-06
13 *36:10 *47:25 6.48049e-05
14 *41:10 *253:A2 1.14452e-05
15 *41:10 *47:8 7.70737e-05
16 *41:35 *47:25 8.78341e-05
*RES
1 *252:Y *47:8 39.2014 
2 *47:8 *253:A2 38.8493 
3 *47:8 *47:25 35.2821 
4 *47:25 *258:A3 38 
*END

*D_NET *48 0.000184865
*CONN
*I *257:B1 I *D sky130_fd_sc_hd__a21oi_1
*I *253:Y O *D sky130_fd_sc_hd__a21oi_1
*CAP
1 *257:B1 5.64134e-05
2 *253:Y 5.64134e-05
3 *257:B1 *253:B1 3.97504e-05
4 *257:B1 *98:23 3.22879e-05
*RES
1 *253:Y *257:B1 47.6157 
*END

*D_NET *49 0.00240208
*CONN
*I *257:A1 I *D sky130_fd_sc_hd__a21oi_1
*I *273:A I *D sky130_fd_sc_hd__and3_1
*I *274:B I *D sky130_fd_sc_hd__xnor2_1
*I *254:Y O *D sky130_fd_sc_hd__nand2_1
*CAP
1 *257:A1 0.000498901
2 *273:A 4.30338e-05
3 *274:B 1.52686e-05
4 *254:Y 0
5 *49:10 0.000275725
6 *49:6 0.000716323
7 *257:A1 *272:B 2.95125e-05
8 *257:A1 *50:8 0.000141879
9 *257:A1 *51:10 0.000166513
10 *257:A1 *52:12 1.34542e-05
11 *257:A1 *90:62 0
12 *257:A1 *90:77 0
13 *257:A1 *91:16 0
14 *257:A1 *91:33 0.00014065
15 *257:A1 *98:12 0
16 *257:A1 *98:23 0
17 *273:A *274:A 7.69576e-05
18 *273:A *65:93 1.32939e-05
19 *274:B *274:A 1.76557e-05
20 *274:B *65:93 2.93747e-05
21 *49:10 *272:B 5.45887e-05
22 *49:10 *311:CLK 8.05936e-05
23 *49:10 *66:10 7.76364e-06
24 *49:10 *90:23 0
25 *49:10 *90:62 0
26 *253:A2 *257:A1 0
27 *15:10 *49:10 8.05936e-05
28 *37:10 *257:A1 0
29 *39:10 *257:A1 0
30 *40:8 *257:A1 0
*RES
1 *254:Y *49:6 38 
2 *49:6 *49:10 19.7229 
3 *49:10 *274:B 23.6214 
4 *49:10 *273:A 24.4707 
5 *49:6 *257:A1 47.6529 
*END

*D_NET *50 0.000884044
*CONN
*I *256:A3 I *D sky130_fd_sc_hd__a31o_1
*I *255:Y O *D sky130_fd_sc_hd__nand2b_1
*CAP
1 *256:A3 0.000139323
2 *255:Y 7.51353e-05
3 *50:8 0.000214458
4 *256:A3 *102:8 0.000313249
5 *50:8 *98:12 0
6 *257:A1 *50:8 0.000141879
*RES
1 *255:Y *50:8 39.9057 
2 *50:8 *256:A3 41.48 
*END

*D_NET *51 0.000813601
*CONN
*I *257:A2 I *D sky130_fd_sc_hd__a21oi_1
*I *256:X O *D sky130_fd_sc_hd__a31o_1
*CAP
1 *257:A2 0
2 *256:X 0.000260121
3 *51:10 0.000260121
4 *51:10 *98:12 0
5 *51:10 *102:8 0.000126847
6 *257:A1 *51:10 0.000166513
7 *324:A *51:10 0
*RES
1 *256:X *51:10 42.785 
2 *51:10 *257:A2 38 
*END

*D_NET *52 0.00215167
*CONN
*I *261:B1 I *D sky130_fd_sc_hd__o221a_1
*I *257:Y O *D sky130_fd_sc_hd__a21oi_1
*CAP
1 *261:B1 7.81981e-05
2 *257:Y 0.000962104
3 *52:12 0.0010403
4 *261:B1 *53:12 4.28015e-05
5 *261:B1 *55:8 4.26942e-06
6 *261:B1 *93:69 1.05441e-05
7 *257:A1 *52:12 1.34542e-05
8 *41:35 *261:B1 0
*RES
1 *257:Y *52:12 48.1803 
2 *52:12 *261:B1 47.1704 
*END

*D_NET *53 0.00103288
*CONN
*I *261:B2 I *D sky130_fd_sc_hd__o221a_1
*I *258:X O *D sky130_fd_sc_hd__a32o_1
*CAP
1 *261:B2 0
2 *258:X 0.000305246
3 *53:12 0.000305246
4 *53:12 *253:B1 0.000181125
5 *53:12 *55:8 4.11877e-05
6 *258:B1 *53:12 4.84569e-05
7 *261:B1 *53:12 4.28015e-05
8 *41:35 *53:12 9.89236e-05
9 *47:25 *53:12 9.8971e-06
*RES
1 *258:X *53:12 29.8771 
2 *53:12 *261:B2 23 
*END

*D_NET *54 0.00209995
*CONN
*I *264:A2 I *D sky130_fd_sc_hd__a22o_1
*I *260:B I *D sky130_fd_sc_hd__or2_1
*I *259:Y O *D sky130_fd_sc_hd__xnor2_1
*CAP
1 *264:A2 0.000511057
2 *260:B 0
3 *259:Y 0.000221682
4 *54:12 0.000511057
5 *54:10 0.000221682
6 *264:A2 *260:A 0.000263896
7 *264:A2 *264:A1 2.18409e-05
8 *264:A2 *264:B1 0.000185434
9 *264:A2 *56:18 1.14876e-05
10 *54:10 *238:A 0.000110913
11 *42:21 *54:10 4.09035e-05
*RES
1 *259:Y *54:10 41.1279 
2 *54:10 *54:12 15 
3 *54:12 *260:B 23 
4 *54:12 *264:A2 31.1614 
*END

*D_NET *55 0.00107165
*CONN
*I *261:C1 I *D sky130_fd_sc_hd__o221a_1
*I *260:X O *D sky130_fd_sc_hd__or2_1
*CAP
1 *261:C1 0
2 *260:X 0.000290338
3 *55:8 0.000290338
4 *55:8 *56:18 0.000123775
5 *55:8 *93:55 5.79559e-05
6 *55:8 *93:69 5.56356e-05
7 *258:B1 *55:8 0.000208152
8 *261:B1 *55:8 4.26942e-06
9 *53:12 *55:8 4.11877e-05
*RES
1 *260:X *55:8 29.8357 
2 *55:8 *261:C1 23 
*END

*D_NET *56 0.00323214
*CONN
*I *268:A1 I *D sky130_fd_sc_hd__o221a_1
*I *261:X O *D sky130_fd_sc_hd__o221a_1
*CAP
1 *268:A1 0
2 *261:X 0.000840229
3 *56:24 8.71338e-05
4 *56:18 0.000927363
5 *56:18 *239:A 5.67058e-05
6 *56:18 *260:A 0.000401768
7 *56:18 *264:A1 1.46594e-05
8 *56:18 *264:B1 7.44161e-06
9 *56:18 *264:B2 0.000141621
10 *56:24 *250:A 0
11 *56:24 *63:8 4.08537e-05
12 *56:24 *65:8 0.000164282
13 *56:24 *97:53 0
14 *264:A2 *56:18 1.14876e-05
15 *35:6 *56:18 9.5877e-05
16 *35:14 *56:18 0.000318946
17 *55:8 *56:18 0.000123775
*RES
1 *261:X *56:18 40.6693 
2 *56:18 *56:24 32.2579 
3 *56:24 *268:A1 23 
*END

*D_NET *57 0.000972063
*CONN
*I *263:B I *D sky130_fd_sc_hd__and2_1
*I *262:Y O *D sky130_fd_sc_hd__o21ai_1
*CAP
1 *263:B 8.39564e-05
2 *262:Y 0.000208908
3 *57:10 0.000292864
4 *57:10 *239:A 6.48049e-05
5 *57:10 *262:A1 9.58714e-05
6 *57:10 *105:6 4.08664e-05
7 *57:10 *105:19 8.4047e-05
8 *57:10 *107:10 0
9 *263:A *263:B 1.14154e-05
10 *42:21 *263:B 0
11 *43:8 *263:B 5.70419e-05
12 *43:19 *263:B 3.22879e-05
13 *43:34 *263:B 0
*RES
1 *262:Y *57:10 41.48 
2 *57:10 *263:B 40.0714 
*END

*D_NET *58 0.00138129
*CONN
*I *264:B1 I *D sky130_fd_sc_hd__a22o_1
*I *265:B I *D sky130_fd_sc_hd__or2_1
*I *263:X O *D sky130_fd_sc_hd__and2_1
*CAP
1 *264:B1 4.21352e-05
2 *265:B 0.000264167
3 *263:X 0.000100231
4 *58:8 0.000406533
5 *264:B1 *260:A 5.3304e-05
6 *264:B1 *264:A1 5.67058e-05
7 *264:B1 *264:B2 1.76557e-05
8 *265:B *238:A 0
9 *265:B *94:86 0.000247678
10 *58:8 *237:A 0
11 *58:8 *239:A 0
12 *264:A2 *264:B1 0.000185434
13 *56:18 *264:B1 7.44161e-06
*RES
1 *263:X *58:8 39.5536 
2 *58:8 *265:B 43.2407 
3 *58:8 *264:B1 40.0507 
*END

*D_NET *59 0.00061022
*CONN
*I *268:A2 I *D sky130_fd_sc_hd__o221a_1
*I *264:X O *D sky130_fd_sc_hd__a22o_1
*CAP
1 *268:A2 0.000121037
2 *264:X 7.07224e-05
3 *59:8 0.000191759
4 *268:A2 *268:C1 5.67058e-05
5 *268:A2 *269:B1 2.32004e-05
6 *268:A2 *269:B2 5.50106e-05
7 *59:8 *237:A 4.5882e-05
8 *59:8 *62:8 4.59027e-05
*RES
1 *264:X *59:8 39.9057 
2 *59:8 *268:A2 40.5271 
*END

*D_NET *60 0.000150093
*CONN
*I *268:C1 I *D sky130_fd_sc_hd__o221a_1
*I *265:X O *D sky130_fd_sc_hd__or2_1
*CAP
1 *268:C1 4.66934e-05
2 *265:X 4.66934e-05
3 *268:A2 *268:C1 5.67058e-05
*RES
1 *265:X *268:C1 47.0979 
*END

*D_NET *61 0.00032192
*CONN
*I *267:B I *D sky130_fd_sc_hd__and2b_1
*I *266:Y O *D sky130_fd_sc_hd__nand2_1
*CAP
1 *267:B 0
2 *266:Y 0.000117224
3 *61:10 0.000117224
4 *61:10 *266:A 2.93747e-05
5 *43:34 *61:10 5.80963e-05
*RES
1 *266:Y *61:10 40.175 
2 *61:10 *267:B 38 
*END

*D_NET *62 0.0013548
*CONN
*I *268:B1 I *D sky130_fd_sc_hd__o221a_1
*I *269:B1 I *D sky130_fd_sc_hd__a22o_1
*I *267:X O *D sky130_fd_sc_hd__and2b_1
*CAP
1 *268:B1 0
2 *269:B1 0.000244624
3 *267:X 0.000257435
4 *62:10 0.000244624
5 *62:8 0.000257435
6 *269:B1 *269:B2 0.000198259
7 *269:B1 *97:53 1.32314e-05
8 *62:8 *237:A 0
9 *62:8 *250:A 0
10 *62:8 *63:8 0
11 *62:8 *65:8 5.86432e-05
12 *62:8 *96:60 1.14452e-05
13 *268:A2 *269:B1 2.32004e-05
14 *59:8 *62:8 4.59027e-05
*RES
1 *267:X *62:8 43.075 
2 *62:8 *62:10 15 
3 *62:10 *269:B1 27.93 
4 *62:10 *268:B1 23 
*END

*D_NET *63 0.000239814
*CONN
*I *270:B1 I *D sky130_fd_sc_hd__o22ai_4
*I *268:X O *D sky130_fd_sc_hd__o221a_1
*CAP
1 *270:B1 0
2 *268:X 7.06846e-05
3 *63:8 7.06846e-05
4 *63:8 *65:8 9.21347e-06
5 *63:8 *97:53 4.83778e-05