*SPEF "ieee 1481-1999"
*DESIGN "freq_psc"
*DATE "14:47:54 Monday October 28, 2024"
*VENDOR "The OpenROAD Project"
*PROGRAM "OpenROAD"
*VERSION "edf00dff99f6c40d67a30c0e22a8191c5d2ed9d6"
*DESIGN_FLOW "NAME_SCOPE LOCAL" "PIN_CAP NONE"
*DIVIDER /
*DELIMITER :
*BUS_DELIMITER []
*T_UNIT 1 NS
*C_UNIT 1 PF
*R_UNIT 1 OHM
*L_UNIT 1 HENRY

*NAME_MAP
*3 clk
*4 out
*5 psc[0]
*6 psc[10]
*7 psc[11]
*8 psc[12]
*9 psc[13]
*10 psc[14]
*11 psc[15]
*12 psc[16]
*13 psc[17]
*14 psc[18]
*15 psc[19]
*16 psc[1]
*17 psc[20]
*18 psc[21]
*19 psc[22]
*20 psc[23]
*21 psc[24]
*22 psc[25]
*23 psc[26]
*24 psc[27]
*25 psc[28]
*26 psc[29]
*27 psc[2]
*28 psc[30]
*29 psc[31]
*30 psc[3]
*31 psc[4]
*32 psc[5]
*33 psc[6]
*34 psc[7]
*35 psc[8]
*36 psc[9]
*37 rst
*38 _000_
*39 _001_
*40 _002_
*41 _003_
*42 _004_
*43 _005_
*44 _006_
*45 _007_
*46 _008_
*47 _009_
*48 _010_
*49 _011_
*50 _012_
*51 _013_
*52 _014_
*53 _015_
*54 _016_
*55 _017_
*56 _018_
*57 _019_
*58 _020_
*59 _021_
*60 _022_
*61 _023_
*62 _024_
*63 _025_
*64 _026_
*65 _027_
*66 _028_
*67 _029_
*68 _030_
*69 _031_
*70 _032_
*71 _033_
*72 _034_
*73 _035_
*74 _036_
*75 _037_
*76 _038_
*77 _039_
*78 _040_
*79 _041_
*80 _042_
*81 _043_
*82 _044_
*83 _045_
*84 _046_
*85 _047_
*86 _048_
*87 _049_
*88 _050_
*89 _051_
*90 _052_
*91 _053_
*92 _054_
*93 _055_
*94 _056_
*95 _057_
*96 _058_
*97 _059_
*98 _060_
*99 _061_
*100 _062_
*101 _063_
*102 _064_
*103 _065_
*104 _066_
*105 _067_
*106 _068_
*107 _069_
*108 _070_
*109 _071_
*110 _072_
*111 _073_
*112 _074_
*113 _075_
*114 _076_
*115 _077_
*116 _078_
*117 _079_
*118 _080_
*119 _081_
*120 _082_
*121 _083_
*122 _084_
*123 _085_
*124 _086_
*125 _087_
*126 _088_
*127 _089_
*128 _090_
*129 _091_
*130 _092_
*131 _093_
*132 _094_
*133 _095_
*134 _096_
*135 _097_
*136 _098_
*137 _099_
*138 _100_
*139 _101_
*140 _102_
*141 _103_
*142 _104_
*143 _105_
*144 _106_
*145 _107_
*146 _108_
*147 _109_
*148 _110_
*149 _111_
*150 _112_
*151 _113_
*152 _114_
*153 _115_
*154 _116_
*155 _117_
*156 _118_
*157 _119_
*158 _120_
*159 _121_
*160 _122_
*161 _123_
*162 _124_
*163 _125_
*164 _126_
*165 _127_
*166 _128_
*167 _129_
*168 _130_
*169 _131_
*170 _132_
*171 _133_
*172 _134_
*173 _135_
*174 _136_
*175 _137_
*176 _138_
*177 _139_
*178 _140_
*179 _141_
*180 _142_
*181 _143_
*182 _144_
*183 _145_
*184 _146_
*185 _147_
*186 _148_
*187 _149_
*188 _150_
*189 _151_
*190 _152_
*191 _153_
*192 _154_
*193 _155_
*194 _156_
*195 _157_
*196 _158_
*197 _159_
*198 _160_
*199 _161_
*200 _162_
*201 _163_
*202 _164_
*203 _165_
*204 _166_
*205 _167_
*206 _168_
*207 _169_
*208 _170_
*209 _171_
*210 _172_
*211 _173_
*212 _174_
*213 _175_
*214 _176_
*215 _177_
*216 _178_
*217 _179_
*218 _180_
*219 _181_
*220 _182_
*221 _183_
*222 _184_
*223 _185_
*224 _186_
*225 _187_
*226 _188_
*227 _189_
*228 _190_
*229 _191_
*230 _192_
*231 _193_
*232 _194_
*233 _195_
*234 _196_
*235 _197_
*236 _198_
*237 _199_
*238 _200_
*239 _201_
*240 _202_
*241 _203_
*242 _204_
*243 _205_
*244 _206_
*245 _207_
*246 _208_
*247 _209_
*248 _210_
*249 _211_
*250 _212_
*251 _213_
*252 _214_
*253 _215_
*254 _216_
*255 _217_
*256 _218_
*257 _219_
*258 _220_
*259 _221_
*260 _222_
*261 _223_
*262 _224_
*263 _225_
*264 _226_
*265 _227_
*266 _228_
*267 _229_
*268 _230_
*269 _231_
*270 _232_
*271 _233_
*272 _234_
*273 _235_
*274 _236_
*275 _237_
*276 _238_
*277 _239_
*278 _240_
*279 _241_
*280 _242_
*281 _243_
*282 _244_
*283 _245_
*284 _246_
*285 _247_
*286 _248_
*287 _249_
*288 _250_
*289 _251_
*290 _252_
*291 _253_
*292 _254_
*293 _255_
*294 _256_
*295 _257_
*296 _258_
*297 _259_
*298 _260_
*299 _261_
*300 _262_
*301 _263_
*302 _264_
*303 _265_
*304 _266_
*305 _267_
*306 _268_
*307 _269_
*308 _270_
*309 _271_
*310 _272_
*311 _273_
*312 _274_
*313 _275_
*314 _276_
*315 _277_
*316 _278_
*317 _279_
*318 _280_
*319 _281_
*320 _282_
*321 _283_
*322 _284_
*323 _285_
*324 _286_
*325 _287_
*326 _288_
*327 _289_
*328 _290_
*329 _291_
*330 _292_
*331 _293_
*332 _294_
*333 _295_
*334 _296_
*335 _297_
*336 _298_
*337 _299_
*338 _300_
*339 _301_
*340 _302_
*341 _303_
*342 _304_
*343 _305_
*344 _306_
*345 _307_
*346 _308_
*347 _309_
*348 _310_
*349 _311_
*350 _312_
*351 _313_
*352 _314_
*353 _315_
*354 _316_
*355 _317_
*356 _318_
*357 _319_
*358 _320_
*359 _321_
*360 _322_
*361 _323_
*362 _324_
*363 _325_
*364 _326_
*365 _327_
*366 _328_
*367 _329_
*368 _330_
*369 _331_
*370 _332_
*371 _333_
*372 _334_
*373 _335_
*374 _336_
*375 _337_
*376 _338_
*377 _339_
*378 _340_
*379 _341_
*380 _342_
*381 _343_
*382 _344_
*383 _345_
*384 _346_
*385 _347_
*386 _348_
*387 _349_
*388 _350_
*389 _351_
*390 _352_
*391 _353_
*392 _354_
*393 _355_
*394 _356_
*395 _357_
*396 _358_
*397 _359_
*398 _360_
*399 _361_
*400 _362_
*401 _363_
*402 _364_
*403 _365_
*404 _366_
*405 _367_
*406 _368_
*407 _369_
*408 _370_
*409 _371_
*410 _372_
*411 _373_
*412 _374_
*413 _375_
*414 _376_
*415 _377_
*416 _378_
*417 _379_
*418 _380_
*419 _381_
*420 _382_
*421 _383_
*422 _384_
*423 _385_
*424 clknet_0_clk
*425 clknet_2_0__leaf_clk
*426 clknet_2_1__leaf_clk
*427 clknet_2_2__leaf_clk
*428 clknet_2_3__leaf_clk
*429 counter\[0\]
*430 counter\[10\]
*431 counter\[11\]
*432 counter\[12\]
*433 counter\[13\]
*434 counter\[14\]
*435 counter\[15\]
*436 counter\[16\]
*437 counter\[17\]
*438 counter\[18\]
*439 counter\[19\]
*440 counter\[1\]
*441 counter\[20\]
*442 counter\[21\]
*443 counter\[22\]
*444 counter\[23\]
*445 counter\[24\]
*446 counter\[25\]
*447 counter\[26\]
*448 counter\[27\]
*449 counter\[28\]
*450 counter\[29\]
*451 counter\[2\]
*452 counter\[30\]
*453 counter\[31\]
*454 counter\[3\]
*455 counter\[4\]
*456 counter\[5\]
*457 counter\[6\]
*458 counter\[7\]
*459 counter\[8\]
*460 counter\[9\]
*461 net1
*462 net10
*463 net11
*464 net12
*465 net13
*466 net14
*467 net15
*468 net16
*469 net17
*470 net18
*471 net19
*472 net2
*473 net20
*474 net21
*475 net22
*476 net23
*477 net24
*478 net25
*479 net26
*480 net27
*481 net28
*482 net29
*483 net3
*484 net30
*485 net31
*486 net32
*487 net33
*488 net34
*489 net35
*490 net36
*491 net37
*492 net38
*493 net39
*494 net4
*495 net40
*496 net41
*497 net42
*498 net43
*499 net44
*500 net45
*501 net46
*502 net47
*503 net48
*504 net5
*505 net54
*506 net6
*507 net62
*508 net63
*509 net64
*510 net65
*511 net7
*512 net8
*513 net9
*514 FILLER_0_104
*515 FILLER_0_113
*516 FILLER_0_125
*517 FILLER_0_133
*518 FILLER_0_139
*519 FILLER_0_141
*520 FILLER_0_15
*521 FILLER_0_153
*522 FILLER_0_165
*523 FILLER_0_169
*524 FILLER_0_181
*525 FILLER_0_189
*526 FILLER_0_27
*527 FILLER_0_29
*528 FILLER_0_3
*529 FILLER_0_41
*530 FILLER_0_53
*531 FILLER_0_57
*532 FILLER_0_67
*533 FILLER_0_73
*534 FILLER_0_83
*535 FILLER_0_85
*536 FILLER_0_91
*537 FILLER_10_102
*538 FILLER_10_131
*539 FILLER_10_141
*540 FILLER_10_189
*541 FILLER_10_20
*542 FILLER_10_27
*543 FILLER_10_29
*544 FILLER_10_45
*545 FILLER_10_63
*546 FILLER_10_83
*547 FILLER_10_89
*548 FILLER_11_105
*549 FILLER_11_111
*550 FILLER_11_113
*551 FILLER_11_119
*552 FILLER_11_131
*553 FILLER_11_146
*554 FILLER_11_158
*555 FILLER_11_166
*556 FILLER_11_169
*557 FILLER_11_27
*558 FILLER_11_43
*559 FILLER_11_49
*560 FILLER_11_57
*561 FILLER_11_70
*562 FILLER_12_109
*563 FILLER_12_120
*564 FILLER_12_132
*565 FILLER_12_141
*566 FILLER_12_153
*567 FILLER_12_165
*568 FILLER_12_169
*569 FILLER_12_173
*570 FILLER_12_189
*571 FILLER_12_22
*572 FILLER_12_36
*573 FILLER_12_56
*574 FILLER_12_64
*575 FILLER_12_73
*576 FILLER_12_91
*577 FILLER_12_99
*578 FILLER_13_111
*579 FILLER_13_143
*580 FILLER_13_149
*581 FILLER_13_165
*582 FILLER_13_169
*583 FILLER_13_177
*584 FILLER_13_18
*585 FILLER_13_3
*586 FILLER_13_36
*587 FILLER_13_48
*588 FILLER_13_57
*589 FILLER_13_69
*590 FILLER_13_81
*591 FILLER_13_93
*592 FILLER_13_97
*593 FILLER_14_114
*594 FILLER_14_126
*595 FILLER_14_139
*596 FILLER_14_170
*597 FILLER_14_177
*598 FILLER_14_188
*599 FILLER_14_19
*600 FILLER_14_27
*601 FILLER_14_29
*602 FILLER_14_40
*603 FILLER_14_6
*604 FILLER_14_65
*605 FILLER_14_83
*606 FILLER_14_88
*607 FILLER_15_110
*608 FILLER_15_113
*609 FILLER_15_119
*610 FILLER_15_144
*611 FILLER_15_167
*612 FILLER_15_169
*613 FILLER_15_188
*614 FILLER_15_19
*615 FILLER_15_39
*616 FILLER_15_53
*617 FILLER_15_6
*618 FILLER_15_78
*619 FILLER_15_89
*620 FILLER_15_98
*621 FILLER_16_117
*622 FILLER_16_129
*623 FILLER_16_141
*624 FILLER_16_153
*625 FILLER_16_173
*626 FILLER_16_179
*627 FILLER_16_183
*628 FILLER_16_23
*629 FILLER_16_27
*630 FILLER_16_41
*631 FILLER_16_75
*632 FILLER_16_83
*633 FILLER_16_99
*634 FILLER_17_108
*635 FILLER_17_13
*636 FILLER_17_144
*637 FILLER_17_152
*638 FILLER_17_161
*639 FILLER_17_167
*640 FILLER_17_169
*641 FILLER_17_181
*642 FILLER_17_189
*643 FILLER_17_25
*644 FILLER_17_36
*645 FILLER_17_48
*646 FILLER_17_57
*647 FILLER_17_6
*648 FILLER_17_65
*649 FILLER_17_98
*650 FILLER_18_10
*651 FILLER_18_112
*652 FILLER_18_119
*653 FILLER_18_131
*654 FILLER_18_139
*655 FILLER_18_141
*656 FILLER_18_165
*657 FILLER_18_180
*658 FILLER_18_186
*659 FILLER_18_22
*660 FILLER_18_29
*661 FILLER_18_48
*662 FILLER_18_56
*663 FILLER_18_6
*664 FILLER_18_81
*665 FILLER_18_85
*666 FILLER_19_107
*667 FILLER_19_111
*668 FILLER_19_113
*669 FILLER_19_118
*670 FILLER_19_130
*671 FILLER_19_136
*672 FILLER_19_159
*673 FILLER_19_176
*674 FILLER_19_189
*675 FILLER_19_27
*676 FILLER_19_3
*677 FILLER_19_54
*678 FILLER_19_69
*679 FILLER_19_75
*680 FILLER_19_87
*681 FILLER_19_96
*682 FILLER_1_111
*683 FILLER_1_116
*684 FILLER_1_147
*685 FILLER_1_15
*686 FILLER_1_159
*687 FILLER_1_167
*688 FILLER_1_169
*689 FILLER_1_181
*690 FILLER_1_189
*691 FILLER_1_27
*692 FILLER_1_3
*693 FILLER_1_39
*694 FILLER_1_51
*695 FILLER_1_55
*696 FILLER_1_57
*697 FILLER_20_12
*698 FILLER_20_139
*699 FILLER_20_141
*700 FILLER_20_153
*701 FILLER_20_165
*702 FILLER_20_180
*703 FILLER_20_186
*704 FILLER_20_19
*705 FILLER_20_29
*706 FILLER_20_37
*707 FILLER_20_45
*708 FILLER_20_7
*709 FILLER_21_108
*710 FILLER_21_113
*711 FILLER_21_119
*712 FILLER_21_13
*713 FILLER_21_142
*714 FILLER_21_150
*715 FILLER_21_164
*716 FILLER_21_174
*717 FILLER_21_189
*718 FILLER_21_25
*719 FILLER_21_3
*720 FILLER_21_37
*721 FILLER_21_49
*722 FILLER_21_57
*723 FILLER_21_72
*724 FILLER_21_84
*725 FILLER_21_9
*726 FILLER_21_90
*727 FILLER_22_121
*728 FILLER_22_139
*729 FILLER_22_141
*730 FILLER_22_18
*731 FILLER_22_26
*732 FILLER_22_44
*733 FILLER_22_52
*734 FILLER_22_6
*735 FILLER_22_78
*736 FILLER_22_85
*737 FILLER_22_93
*738 FILLER_23_113
*739 FILLER_23_136
*740 FILLER_23_148
*741 FILLER_23_152
*742 FILLER_23_167
*743 FILLER_23_189
*744 FILLER_23_47
*745 FILLER_23_80
*746 FILLER_23_88
*747 FILLER_24_11
*748 FILLER_24_119
*749 FILLER_24_123
*750 FILLER_24_131
*751 FILLER_24_139
*752 FILLER_24_141
*753 FILLER_24_149
*754 FILLER_24_160
*755 FILLER_24_164
*756 FILLER_24_168
*757 FILLER_24_174
*758 FILLER_24_185
*759 FILLER_24_189
*760 FILLER_24_23
*761 FILLER_24_27
*762 FILLER_24_29
*763 FILLER_24_3
*764 FILLER_24_46
*765 FILLER_24_57
*766 FILLER_24_78
*767 FILLER_24_85
*768 FILLER_24_96
*769 FILLER_25_109
*770 FILLER_25_116
*771 FILLER_25_12
*772 FILLER_25_124
*773 FILLER_25_135
*774 FILLER_25_143
*775 FILLER_25_153
*776 FILLER_25_167
*777 FILLER_25_169
*778 FILLER_25_181
*779 FILLER_25_189
*780 FILLER_25_21
*781 FILLER_25_33
*782 FILLER_25_44
*783 FILLER_25_64
*784 FILLER_25_73
*785 FILLER_26_104
*786 FILLER_26_116
*787 FILLER_26_139
*788 FILLER_26_148
*789 FILLER_26_167
*790 FILLER_26_179
*791 FILLER_26_187
*792 FILLER_26_19
*793 FILLER_26_26
*794 FILLER_26_29
*795 FILLER_26_3
*796 FILLER_26_35
*797 FILLER_26_62
*798 FILLER_26_74
*799 FILLER_26_82
*800 FILLER_26_85
*801 FILLER_26_97
*802 FILLER_27_106
*803 FILLER_27_113
*804 FILLER_27_121
*805 FILLER_27_134
*806 FILLER_27_142
*807 FILLER_27_165
*808 FILLER_27_169
*809 FILLER_27_181
*810 FILLER_27_189
*811 FILLER_27_3
*812 FILLER_27_39
*813 FILLER_27_47
*814 FILLER_27_57
*815 FILLER_27_61
*816 FILLER_27_86
*817 FILLER_27_90
*818 FILLER_27_97
*819 FILLER_28_11
*820 FILLER_28_114
*821 FILLER_28_126
*822 FILLER_28_138
*823 FILLER_28_144
*824 FILLER_28_158
*825 FILLER_28_170
*826 FILLER_28_182
*827 FILLER_28_19
*828 FILLER_28_23
*829 FILLER_28_27
*830 FILLER_28_29
*831 FILLER_28_3
*832 FILLER_28_35
*833 FILLER_28_49
*834 FILLER_28_55
*835 FILLER_28_63
*836 FILLER_28_75
*837 FILLER_28_83
*838 FILLER_29_101
*839 FILLER_29_111
*840 FILLER_29_123
*841 FILLER_29_13
*842 FILLER_29_130
*843 FILLER_29_138
*844 FILLER_29_144
*845 FILLER_29_169
*846 FILLER_29_181
*847 FILLER_29_189
*848 FILLER_29_25
*849 FILLER_29_31
*850 FILLER_29_55
*851 FILLER_29_60
*852 FILLER_29_72
*853 FILLER_29_84
*854 FILLER_29_93
*855 FILLER_2_119
*856 FILLER_2_136
*857 FILLER_2_141
*858 FILLER_2_15
*859 FILLER_2_153
*860 FILLER_2_165
*861 FILLER_2_177
*862 FILLER_2_189
*863 FILLER_2_27
*864 FILLER_2_29
*865 FILLER_2_3
*866 FILLER_2_41
*867 FILLER_2_46
*868 FILLER_2_54
*869 FILLER_2_67
*870 FILLER_30_15
*871 FILLER_30_170
*872 FILLER_30_182
*873 FILLER_30_27
*874 FILLER_30_29
*875 FILLER_30_3
*876 FILLER_30_42
*877 FILLER_30_64
*878 FILLER_30_76
*879 FILLER_30_85
*880 FILLER_30_93
*881 FILLER_31_105
*882 FILLER_31_111
*883 FILLER_31_113
*884 FILLER_31_125
*885 FILLER_31_139
*886 FILLER_31_141
*887 FILLER_31_15
*888 FILLER_31_172
*889 FILLER_31_184
*890 FILLER_31_27
*891 FILLER_31_29
*892 FILLER_31_3
*893 FILLER_31_41
*894 FILLER_31_76
*895 FILLER_31_85
*896 FILLER_31_97
*897 FILLER_3_105
*898 FILLER_3_111
*899 FILLER_3_148
*900 FILLER_3_15
*901 FILLER_3_160
*902 FILLER_3_169
*903 FILLER_3_181
*904 FILLER_3_189
*905 FILLER_3_27
*906 FILLER_3_3
*907 FILLER_3_35
*908 FILLER_3_44
*909 FILLER_3_57
*910 FILLER_3_82
*911 FILLER_3_94
*912 FILLER_4_104
*913 FILLER_4_116
*914 FILLER_4_120
*915 FILLER_4_124
*916 FILLER_4_132
*917 FILLER_4_138
*918 FILLER_4_141
*919 FILLER_4_15
*920 FILLER_4_153
*921 FILLER_4_165
*922 FILLER_4_177
*923 FILLER_4_189
*924 FILLER_4_27
*925 FILLER_4_29
*926 FILLER_4_3
*927 FILLER_4_54
*928 FILLER_4_64
*929 FILLER_4_76
*930 FILLER_4_92
*931 FILLER_5_103
*932 FILLER_5_111
*933 FILLER_5_113
*934 FILLER_5_117
*935 FILLER_5_148
*936 FILLER_5_15
*937 FILLER_5_152
*938 FILLER_5_166
*939 FILLER_5_169
*940 FILLER_5_181
*941 FILLER_5_189
*942 FILLER_5_27
*943 FILLER_5_3
*944 FILLER_5_35
*945 FILLER_5_48
*946 FILLER_5_57
*947 FILLER_5_69
*948 FILLER_5_89
*949 FILLER_6_110
*950 FILLER_6_137
*951 FILLER_6_15
*952 FILLER_6_175
*953 FILLER_6_27
*954 FILLER_6_29
*955 FILLER_6_3
*956 FILLER_6_44
*957 FILLER_6_56
*958 FILLER_6_64
*959 FILLER_6_70
*960 FILLER_6_83
*961 FILLER_6_85
*962 FILLER_6_98
*963 FILLER_7_110
*964 FILLER_7_141
*965 FILLER_7_149
*966 FILLER_7_15
*967 FILLER_7_169
*968 FILLER_7_27
*969 FILLER_7_3
*970 FILLER_7_35
*971 FILLER_7_60
*972 FILLER_7_90
*973 FILLER_8_124
*974 FILLER_8_130
*975 FILLER_8_134
*976 FILLER_8_141
*977 FILLER_8_15
*978 FILLER_8_153
*979 FILLER_8_165
*980 FILLER_8_189
*981 FILLER_8_27
*982 FILLER_8_29
*983 FILLER_8_3
*984 FILLER_8_63
*985 FILLER_8_85
*986 FILLER_9_113
*987 FILLER_9_124
*988 FILLER_9_132
*989 FILLER_9_15
*990 FILLER_9_159
*991 FILLER_9_164
*992 FILLER_9_188
*993 FILLER_9_20
*994 FILLER_9_3
*995 FILLER_9_32
*996 FILLER_9_40
*997 FILLER_9_48
*998 FILLER_9_57
*999 PHY_EDGE_ROW_0_Left_32
*1000 PHY_EDGE_ROW_0_Right_0
*1001 PHY_EDGE_ROW_10_Left_42
*1002 PHY_EDGE_ROW_10_Right_10
*1003 PHY_EDGE_ROW_11_Left_43
*1004 PHY_EDGE_ROW_11_Right_11
*1005 PHY_EDGE_ROW_12_Left_44
*1006 PHY_EDGE_ROW_12_Right_12
*1007 PHY_EDGE_ROW_13_Left_45
*1008 PHY_EDGE_ROW_13_Right_13
*1009 PHY_EDGE_ROW_14_Left_46
*1010 PHY_EDGE_ROW_14_Right_14
*1011 PHY_EDGE_ROW_15_Left_47
*1012 PHY_EDGE_ROW_15_Right_15
*1013 PHY_EDGE_ROW_16_Left_48
*1014 PHY_EDGE_ROW_16_Right_16
*1015 PHY_EDGE_ROW_17_Left_49
*1016 PHY_EDGE_ROW_17_Right_17
*1017 PHY_EDGE_ROW_18_Left_50
*1018 PHY_EDGE_ROW_18_Right_18
*1019 PHY_EDGE_ROW_19_Left_51
*1020 PHY_EDGE_ROW_19_Right_19
*1021 PHY_EDGE_ROW_1_Left_33
*1022 PHY_EDGE_ROW_1_Right_1
*1023 PHY_EDGE_ROW_20_Left_52
*1024 PHY_EDGE_ROW_20_Right_20
*1025 PHY_EDGE_ROW_21_Left_53
*1026 PHY_EDGE_ROW_21_Right_21
*1027 PHY_EDGE_ROW_22_Left_54
*1028 PHY_EDGE_ROW_22_Right_22
*1029 PHY_EDGE_ROW_23_Left_55
*1030 PHY_EDGE_ROW_23_Right_23
*1031 PHY_EDGE_ROW_24_Left_56
*1032 PHY_EDGE_ROW_24_Right_24
*1033 PHY_EDGE_ROW_25_Left_57
*1034 PHY_EDGE_ROW_25_Right_25
*1035 PHY_EDGE_ROW_26_Left_58
*1036 PHY_EDGE_ROW_26_Right_26
*1037 PHY_EDGE_ROW_27_Left_59
*1038 PHY_EDGE_ROW_27_Right_27
*1039 PHY_EDGE_ROW_28_Left_60
*1040 PHY_EDGE_ROW_28_Right_28
*1041 PHY_EDGE_ROW_29_Left_61
*1042 PHY_EDGE_ROW_29_Right_29
*1043 PHY_EDGE_ROW_2_Left_34
*1044 PHY_EDGE_ROW_2_Right_2
*1045 PHY_EDGE_ROW_30_Left_62
*1046 PHY_EDGE_ROW_30_Right_30
*1047 PHY_EDGE_ROW_31_Left_63
*1048 PHY_EDGE_ROW_31_Right_31
*1049 PHY_EDGE_ROW_3_Left_35
*1050 PHY_EDGE_ROW_3_Right_3
*1051 PHY_EDGE_ROW_4_Left_36
*1052 PHY_EDGE_ROW_4_Right_4
*1053 PHY_EDGE_ROW_5_Left_37
*1054 PHY_EDGE_ROW_5_Right_5
*1055 PHY_EDGE_ROW_6_Left_38
*1056 PHY_EDGE_ROW_6_Right_6
*1057 PHY_EDGE_ROW_7_Left_39
*1058 PHY_EDGE_ROW_7_Right_7
*1059 PHY_EDGE_ROW_8_Left_40
*1060 PHY_EDGE_ROW_8_Right_8
*1061 PHY_EDGE_ROW_9_Left_41
*1062 PHY_EDGE_ROW_9_Right_9
*1063 TAP_TAPCELL_ROW_0_64
*1064 TAP_TAPCELL_ROW_0_65
*1065 TAP_TAPCELL_ROW_0_66
*1066 TAP_TAPCELL_ROW_0_67
*1067 TAP_TAPCELL_ROW_0_68
*1068 TAP_TAPCELL_ROW_0_69
*1069 TAP_TAPCELL_ROW_10_97
*1070 TAP_TAPCELL_ROW_10_98
*1071 TAP_TAPCELL_ROW_10_99
*1072 TAP_TAPCELL_ROW_11_100
*1073 TAP_TAPCELL_ROW_11_101
*1074 TAP_TAPCELL_ROW_11_102
*1075 TAP_TAPCELL_ROW_12_103
*1076 TAP_TAPCELL_ROW_12_104
*1077 TAP_TAPCELL_ROW_12_105
*1078 TAP_TAPCELL_ROW_13_106
*1079 TAP_TAPCELL_ROW_13_107
*1080 TAP_TAPCELL_ROW_13_108
*1081 TAP_TAPCELL_ROW_14_109
*1082 TAP_TAPCELL_ROW_14_110
*1083 TAP_TAPCELL_ROW_14_111
*1084 TAP_TAPCELL_ROW_15_112
*1085 TAP_TAPCELL_ROW_15_113
*1086 TAP_TAPCELL_ROW_15_114
*1087 TAP_TAPCELL_ROW_16_115
*1088 TAP_TAPCELL_ROW_16_116
*1089 TAP_TAPCELL_ROW_16_117
*1090 TAP_TAPCELL_ROW_17_118
*1091 TAP_TAPCELL_ROW_17_119
*1092 TAP_TAPCELL_ROW_17_120
*1093 TAP_TAPCELL_ROW_18_121
*1094 TAP_TAPCELL_ROW_18_122
*1095 TAP_TAPCELL_ROW_18_123
*1096 TAP_TAPCELL_ROW_19_124
*1097 TAP_TAPCELL_ROW_19_125
*1098 TAP_TAPCELL_ROW_19_126
*1099 TAP_TAPCELL_ROW_1_70
*1100 TAP_TAPCELL_ROW_1_71
*1101 TAP_TAPCELL_ROW_1_72
*1102 TAP_TAPCELL_ROW_20_127
*1103 TAP_TAPCELL_ROW_20_128
*1104 TAP_TAPCELL_ROW_20_129
*1105 TAP_TAPCELL_ROW_21_130
*1106 TAP_TAPCELL_ROW_21_131
*1107 TAP_TAPCELL_ROW_21_132
*1108 TAP_TAPCELL_ROW_22_133
*1109 TAP_TAPCELL_ROW_22_134
*1110 TAP_TAPCELL_ROW_22_135
*1111 TAP_TAPCELL_ROW_23_136
*1112 TAP_TAPCELL_ROW_23_137
*1113 TAP_TAPCELL_ROW_23_138
*1114 TAP_TAPCELL_ROW_24_139
*1115 TAP_TAPCELL_ROW_24_140
*1116 TAP_TAPCELL_ROW_24_141
*1117 TAP_TAPCELL_ROW_25_142
*1118 TAP_TAPCELL_ROW_25_143
*1119 TAP_TAPCELL_ROW_25_144
*1120 TAP_TAPCELL_ROW_26_145
*1121 TAP_TAPCELL_ROW_26_146
*1122 TAP_TAPCELL_ROW_26_147
*1123 TAP_TAPCELL_ROW_27_148
*1124 TAP_TAPCELL_ROW_27_149
*1125 TAP_TAPCELL_ROW_27_150
*1126 TAP_TAPCELL_ROW_28_151
*1127 TAP_TAPCELL_ROW_28_152
*1128 TAP_TAPCELL_ROW_28_153
*1129 TAP_TAPCELL_ROW_29_154
*1130 TAP_TAPCELL_ROW_29_155
*1131 TAP_TAPCELL_ROW_29_156
*1132 TAP_TAPCELL_ROW_2_73
*1133 TAP_TAPCELL_ROW_2_74
*1134 TAP_TAPCELL_ROW_2_75
*1135 TAP_TAPCELL_ROW_30_157
*1136 TAP_TAPCELL_ROW_30_158
*1137 TAP_TAPCELL_ROW_30_159
*1138 TAP_TAPCELL_ROW_31_160
*1139 TAP_TAPCELL_ROW_31_161
*1140 TAP_TAPCELL_ROW_31_162
*1141 TAP_TAPCELL_ROW_31_163
*1142 TAP_TAPCELL_ROW_31_164
*1143 TAP_TAPCELL_ROW_31_165
*1144 TAP_TAPCELL_ROW_3_76
*1145 TAP_TAPCELL_ROW_3_77
*1146 TAP_TAPCELL_ROW_3_78
*1147 TAP_TAPCELL_ROW_4_79
*1148 TAP_TAPCELL_ROW_4_80
*1149 TAP_TAPCELL_ROW_4_81
*1150 TAP_TAPCELL_ROW_5_82
*1151 TAP_TAPCELL_ROW_5_83
*1152 TAP_TAPCELL_ROW_5_84
*1153 TAP_TAPCELL_ROW_6_85
*1154 TAP_TAPCELL_ROW_6_86
*1155 TAP_TAPCELL_ROW_6_87
*1156 TAP_TAPCELL_ROW_7_88
*1157 TAP_TAPCELL_ROW_7_89
*1158 TAP_TAPCELL_ROW_7_90
*1159 TAP_TAPCELL_ROW_8_91
*1160 TAP_TAPCELL_ROW_8_92
*1161 TAP_TAPCELL_ROW_8_93
*1162 TAP_TAPCELL_ROW_9_94
*1163 TAP_TAPCELL_ROW_9_95
*1164 TAP_TAPCELL_ROW_9_96
*1165 _386_
*1166 _387_
*1167 _388_
*1168 _389_
*1169 _390_
*1170 _391_
*1171 _392_
*1172 _393_
*1173 _394_
*1174 _395_
*1175 _396_
*1176 _397_
*1177 _398_
*1178 _399_
*1179 _400_
*1180 _401_
*1181 _402_
*1182 _403_
*1183 _404_
*1184 _405_
*1185 _406_
*1186 _407_
*1187 _408_
*1188 _409_
*1189 _410_
*1190 _411_
*1191 _412_
*1192 _413_
*1193 _414_
*1194 _415_
*1195 _416_
*1196 _417_
*1197 _418_
*1198 _419_
*1199 _420_
*1200 _421_
*1201 _422_
*1202 _423_
*1203 _424_
*1204 _425_
*1205 _426_
*1206 _427_
*1207 _428_
*1208 _429_
*1209 _430_
*1210 _431_
*1211 _432_
*1212 _433_
*1213 _434_
*1214 _435_
*1215 _436_
*1216 _437_
*1217 _438_
*1218 _439_
*1219 _440_
*1220 _441_
*1221 _442_
*1222 _443_
*1223 _444_
*1224 _445_
*1225 _446_
*1226 _447_
*1227 _448_
*1228 _449_
*1229 _450_
*1230 _451_
*1231 _452_
*1232 _453_
*1233 _454_
*1234 _455_
*1235 _456_
*1236 _457_
*1237 _458_
*1238 _459_
*1239 _460_
*1240 _461_
*1241 _462_
*1242 _463_
*1243 _464_
*1244 _465_
*1245 _466_
*1246 _467_
*1247 _468_
*1248 _469_
*1249 _470_
*1250 _471_
*1251 _472_
*1252 _473_
*1253 _474_
*1254 _475_
*1255 _476_
*1256 _477_
*1257 _478_
*1258 _479_
*1259 _480_
*1260 _481_
*1261 _482_
*1262 _483_
*1263 _484_
*1264 _485_
*1265 _486_
*1266 _487_
*1267 _488_
*1268 _489_
*1269 _490_
*1270 _491_
*1271 _492_
*1272 _493_
*1273 _494_
*1274 _495_
*1275 _496_
*1276 _497_
*1277 _498_
*1278 _499_
*1279 _500_
*1280 _501_
*1281 _502_
*1282 _503_
*1283 _504_
*1284 _505_
*1285 _506_
*1286 _507_
*1287 _508_
*1288 _509_
*1289 _510_
*1290 _511_
*1291 _512_
*1292 _513_
*1293 _514_
*1294 _515_
*1295 _516_
*1296 _517_
*1297 _518_
*1298 _519_
*1299 _520_
*1300 _521_
*1301 _522_
*1302 _523_
*1303 _524_
*1304 _525_
*1305 _526_
*1306 _527_
*1307 _528_
*1308 _529_
*1309 _530_
*1310 _531_
*1311 _532_
*1312 _533_
*1313 _534_
*1314 _535_
*1315 _536_
*1316 _537_
*1317 _538_
*1318 _539_
*1319 _540_
*1320 _541_
*1321 _542_
*1322 _543_
*1323 _544_
*1324 _545_
*1325 _546_
*1326 _547_
*1327 _548_
*1328 _549_
*1329 _550_
*1330 _551_
*1331 _552_
*1332 _553_
*1333 _554_
*1334 _555_
*1335 _556_
*1336 _557_
*1337 _558_
*1338 _559_
*1339 _560_
*1340 _561_
*1341 _562_
*1342 _563_
*1343 _564_
*1344 _565_
*1345 _566_
*1346 _567_
*1347 _568_
*1348 _569_
*1349 _570_
*1350 _571_
*1351 _572_
*1352 _573_
*1353 _574_
*1354 _575_
*1355 _576_
*1356 _577_
*1357 _578_
*1358 _579_
*1359 _580_
*1360 _581_
*1361 _582_
*1362 _583_
*1363 _584_
*1364 _585_
*1365 _586_
*1366 _587_
*1367 _588_
*1368 _589_
*1369 _590_
*1370 _591_
*1371 _592_
*1372 _593_
*1373 _594_
*1374 _595_
*1375 _596_
*1376 _597_
*1377 _598_
*1378 _599_
*1379 _600_
*1380 _601_
*1381 _602_
*1382 _603_
*1383 _604_
*1384 _605_
*1385 _606_
*1386 _607_
*1387 _608_
*1388 _609_
*1389 _610_
*1390 _611_
*1391 _612_
*1392 _613_
*1393 _614_
*1394 _615_
*1395 _616_
*1396 _617_
*1397 _618_
*1398 _619_
*1399 _620_
*1400 _621_
*1401 _622_
*1402 _623_
*1403 _624_
*1404 _625_
*1405 _626_
*1406 _627_
*1407 _628_
*1408 _629_
*1409 _630_
*1410 _631_
*1411 _632_
*1412 _633_
*1413 _634_
*1414 _635_
*1415 _636_
*1416 _637_
*1417 _638_
*1418 _639_
*1419 _640_
*1420 _641_
*1421 _642_
*1422 _643_
*1423 _644_
*1424 _645_
*1425 _646_
*1426 _647_
*1427 _648_
*1428 _649_
*1429 _650_
*1430 _651_
*1431 _652_
*1432 _653_
*1433 _654_
*1434 _655_
*1435 _656_
*1436 _657_
*1437 _658_
*1438 _659_
*1439 _660_
*1440 _661_
*1441 _662_
*1442 _663_
*1443 _664_
*1444 _665_
*1445 _666_
*1446 _667_
*1447 _668_
*1448 _669_
*1449 _670_
*1450 _671_
*1451 _672_
*1452 _673_
*1453 _674_
*1454 _675_
*1455 _676_
*1456 _677_
*1457 _678_
*1458 _679_
*1459 _680_
*1460 _681_
*1461 _682_
*1462 _683_
*1463 _684_
*1464 _685_
*1465 _686_
*1466 _687_
*1467 _688_
*1468 _689_
*1469 _690_
*1470 _691_
*1471 _692_
*1472 _693_
*1473 _694_
*1474 _695_
*1475 _696_
*1476 _697_
*1477 _698_
*1478 _699_
*1479 _700_
*1480 _701_
*1481 _702_
*1482 _703_
*1483 _704_
*1484 _705_
*1485 _706_
*1486 _707_
*1487 _708_
*1488 _709_
*1489 _710_
*1490 _711_
*1491 _712_
*1492 _713_
*1493 _714_
*1494 _715_
*1495 _716_
*1496 _717_
*1497 _718_
*1498 _719_
*1499 _720_
*1500 _721_
*1501 _722_
*1502 _723_
*1503 _724_
*1504 _725_
*1505 _726_
*1506 _727_
*1507 _728_
*1508 _729_
*1509 _730_
*1510 _731_
*1511 _732_
*1512 _733_
*1513 _734_
*1514 _735_
*1515 _736_
*1516 _737_
*1517 _738_
*1518 _739_
*1519 _740_
*1520 _741_
*1521 _742_
*1522 _743_
*1523 _744_
*1524 _745_
*1525 _746_
*1526 _747_
*1527 _748_
*1528 _749_
*1529 _750_
*1530 _751_
*1531 _752_
*1532 _753_
*1533 _754_
*1534 _755_
*1535 _756_
*1536 _757_
*1537 _758_
*1538 _759_
*1539 _760_
*1540 _761_
*1541 _762_
*1542 _763_
*1543 _764_
*1544 _765_
*1545 _766_
*1546 _767_
*1547 _768_
*1548 _769_
*1549 _770_
*1550 _771_
*1551 _772_
*1552 _773_
*1553 _774_
*1554 _775_
*1555 _776_
*1556 _777_
*1557 _778_
*1558 _779_
*1559 _780_
*1560 _781_
*1561 _782_
*1562 _783_
*1563 _784_
*1564 _785_
*1565 _786_
*1566 _787_
*1567 _788_
*1568 _789_
*1569 _790_
*1570 _791_
*1571 _792_
*1572 _793_
*1573 _794_
*1574 _795_
*1575 _796_
*1576 _797_
*1577 _798_
*1578 _799_
*1579 _800_
*1580 _801_
*1581 _802_
*1582 _803_
*1583 _804_
*1584 clkbuf_0_clk
*1585 clkbuf_2_0__f_clk
*1586 clkbuf_2_1__f_clk
*1587 clkbuf_2_2__f_clk
*1588 clkbuf_2_3__f_clk
*1589 clkload0
*1590 clkload1
*1591 clkload2
*1592 clone11
*1593 fanout35
*1594 fanout36
*1595 fanout37
*1596 fanout38
*1597 fanout40
*1598 fanout41
*1599 fanout42
*1600 fanout43
*1601 input1
*1602 input10
*1603 input11
*1604 input12
*1605 input13
*1606 input14
*1607 input15
*1608 input16
*1609 input17
*1610 input18
*1611 input19
*1612 input2
*1613 input20
*1614 input21
*1615 input22
*1616 input23
*1617 input24
*1618 input25
*1619 input26
*1620 input27
*1621 input28
*1622 input29
*1623 input3
*1624 input30
*1625 input31
*1626 input32
*1627 input33
*1628 input4
*1629 input5
*1630 input6
*1631 input7
*1632 input8
*1633 input9
*1634 max_cap39
*1635 output34
*1636 rebuffer1
*1637 rebuffer19
*1638 rebuffer2
*1639 rebuffer20
*1640 rebuffer21
*1641 rebuffer22
*1642 rebuffer3
*1643 rebuffer4
*1644 rebuffer5

*PORTS
clk I
out O
psc[0] I
psc[10] I
psc[11] I
psc[12] I
psc[13] I
psc[14] I
psc[15] I
psc[16] I
psc[17] I
psc[18] I
psc[19] I
psc[1] I
psc[20] I
psc[21] I
psc[22] I
psc[23] I
psc[24] I
psc[25] I
psc[26] I
psc[27] I
psc[28] I
psc[29] I
psc[2] I
psc[30] I
psc[31] I
psc[3] I
psc[4] I
psc[5] I
psc[6] I
psc[7] I
psc[8] I
psc[9] I
rst I

*D_NET *3 0.00945273
*CONN
*P clk I
*I *1584:A I *D sky130_fd_sc_hd__clkbuf_16
*CAP
1 clk 0.00400373
2 *1584:A 0
3 *3:13 0.00400373
4 *3:13 *1526:A 1.01436e-05
5 *3:13 *1627:A 8.06147e-05
6 *3:13 *77:10 0.000114083
7 *3:13 *422:10 0
8 *3:13 *487:10 0.000141809
9 *3:13 *497:27 0.00012678
10 *3:13 *497:29 0.000168453
11 *3:13 *497:31 0.0002872
12 *3:13 *497:37 0.000101064
13 *3:13 *497:41 0.000219882
14 *3:13 *497:43 0.000195248
*RES
1 clk *3:13 48.9538 
2 *3:13 *1584:A 38 
*END

*D_NET *4 0.000844096
*CONN
*P out O
*I *1635:X O *D sky130_fd_sc_hd__buf_2
*CAP
1 out 0.000102494
2 *1635:X 0.000308931
3 *4:10 0.000411425
4 out *1622:A 2.12457e-05
5 out *31:17 0
*RES
1 *1635:X *4:10 42.2775 
2 *4:10 out 8.4816 
*END

*D_NET *5 0.00175941
*CONN
*P psc[0] I
*I *1601:A I *D sky130_fd_sc_hd__buf_6
*CAP
1 psc[0] 0.000661799
2 *1601:A 0
3 *5:9 0.000661799
4 *5:9 *27:9 0
5 *5:9 *461:8 0.000185434
6 *5:9 *461:14 0
7 *5:9 *487:33 0.00024616
8 *5:9 *497:16 4.21594e-06
*RES
1 psc[0] *5:9 30.7221 
2 *5:9 *1601:A 23 
*END

*D_NET *6 0.000591185
*CONN
*P psc[10] I
*I *1612:A I *D sky130_fd_sc_hd__dlymetal6s2s_1
*CAP
1 psc[10] 0.000271014
2 *1612:A 0.000271014
3 *1612:A *1624:A 0
4 *1612:A *7:17 2.79122e-05
5 *1612:A *36:17 2.12457e-05
*RES
1 psc[10] *1612:A 47.7832 
*END

*D_NET *7 0.000690822
*CONN
*P psc[11] I
*I *1623:A I *D sky130_fd_sc_hd__dlymetal6s2s_1
*CAP
1 psc[11] 0.000331455
2 *1623:A 0
3 *7:17 0.000331455
4 *1612:A *7:17 2.79122e-05
*RES
1 psc[11] *7:17 27.5105 
2 *7:17 *1623:A 23 
*END

*D_NET *8 0.00114443
*CONN
*P psc[12] I
*I *1628:A I *D sky130_fd_sc_hd__clkbuf_1
*CAP
1 psc[12] 0.000572213
2 *1628:A 0.000572213
3 *1628:A *1629:A 0
*RES
1 psc[12] *1628:A 49.3721 
*END

*D_NET *9 0.000936842
*CONN
*P psc[13] I
*I *1629:A I *D sky130_fd_sc_hd__buf_1
*CAP
1 psc[13] 0.000447854
2 *1629:A 0.000447854
3 *1629:A *1532:A 4.21594e-06
4 *1629:A *1630:A 0
5 *1629:A *494:10 2.93845e-05
6 *1629:A *506:8 7.53384e-06
7 *1628:A *1629:A 0
*RES
1 psc[13] *1629:A 47.3214 
*END

*D_NET *10 0.000944472
*CONN
*P psc[14] I
*I *1630:A I *D sky130_fd_sc_hd__clkbuf_2
*CAP
1 psc[14] 0.000447678
2 *1630:A 0.000447678
3 *1630:A *1631:A 0
4 *1630:A *494:10 1.19796e-05
5 *1630:A *506:8 3.71369e-05
6 *1629:A *1630:A 0
*RES
1 psc[14] *1630:A 47.4457 
*END

*D_NET *11 0.000904189
*CONN
*P psc[15] I
*I *1631:A I *D sky130_fd_sc_hd__dlymetal6s2s_1
*CAP
1 psc[15] 0.000448327
2 *1631:A 0.000448327
3 *1631:A *494:10 0
4 *1631:A *511:10 7.53384e-06
5 *1630:A *1631:A 0
*RES
1 psc[15] *1631:A 47.3214 
*END

*D_NET *12 0.00052422
*CONN
*P psc[16] I
*I *1632:A I *D sky130_fd_sc_hd__dlymetal6s2s_1
*CAP
1 psc[16] 0.000206998
2 *1632:A 0.000206998
3 *1632:A *1602:A 8.68758e-05
4 *1632:A *17:13 2.33476e-05
*RES
1 psc[16] *1632:A 47.1648 
*END

*D_NET *13 0.00272488
*CONN
*P psc[17] I
*I *1633:A I *D sky130_fd_sc_hd__buf_1
*CAP
1 psc[17] 0.000696736
2 *1633:A 0
3 *13:15 0.000696736
4 *13:15 *1186:A 0.000105328
5 *13:15 *1209:A 2.02872e-05
6 *13:15 *1209:B 0.000390679
7 *13:15 *1252:A_N 0.000139052
8 *13:15 *1252:B 0.000137651
9 *13:15 *1267:A 0
10 *13:15 *1602:A 0.000129672
11 *13:15 *1603:A 0
12 *13:15 *17:13 7.82427e-05
13 *13:15 *147:25 2.24608e-05
14 *13:15 *513:27 0.000308033
*RES
1 psc[17] *13:15 34.392 
2 *13:15 *1633:A 23 
*END

*D_NET *14 0.00153428
*CONN
*P psc[18] I
*I *1602:A I *D sky130_fd_sc_hd__buf_1
*CAP
1 psc[18] 0.000617547
2 *1602:A 0.000617547
3 *1602:A *144:31 6.4e-06
4 *1602:A *190:8 5.04995e-05
5 *1602:A *465:12 2.57449e-05
6 *1632:A *1602:A 8.68758e-05
7 *13:15 *1602:A 0.000129672
*RES
1 psc[18] *1602:A 48.7191 
*END

*D_NET *15 0.000914273
*CONN
*P psc[19] I
*I *1603:A I *D sky130_fd_sc_hd__clkbuf_2
*CAP
1 psc[19] 0.000278861
2 *1603:A 0.000278861
3 *1603:A *1208:C 7.32258e-05
4 *1603:A *1608:A 8.73764e-05
5 *1603:A *17:13 7.37416e-05
6 *1603:A *465:72 0.000122208
7 *13:15 *1603:A 0
*RES
1 psc[19] *1603:A 49.0114 
*END

*D_NET *16 0.000756968
*CONN
*P psc[1] I