* NGSPICE file created from freq_psc.ext - technology: sky130A

* Black-box entry subcircuit for sky130_fd_sc_hd__and2_1 abstract view
.subckt sky130_fd_sc_hd__and2_1 A B VGND VNB VPB VPWR X
.ends

* Black-box entry subcircuit for sky130_fd_sc_hd__fill_2 abstract view
.subckt sky130_fd_sc_hd__fill_2 VGND VNB VPB VPWR
.ends

* Black-box entry subcircuit for sky130_fd_sc_hd__dlygate4sd1_1 abstract view
.subckt sky130_fd_sc_hd__dlygate4sd1_1 A VGND VNB VPB VPWR X
.ends

* Black-box entry subcircuit for sky130_fd_sc_hd__fill_1 abstract view
.subckt sky130_fd_sc_hd__fill_1 VGND VNB VPB VPWR
.ends

* Black-box entry subcircuit for sky130_fd_sc_hd__dfrtp_4 abstract view
.subckt sky130_fd_sc_hd__dfrtp_4 CLK D RESET_B VGND VNB VPB VPWR Q
.ends

* Black-box entry subcircuit for sky130_ef_sc_hd__decap_12 abstract view
.subckt sky130_ef_sc_hd__decap_12 VPWR VGND VPB VNB
.ends

* Black-box entry subcircuit for sky130_fd_sc_hd__inv_2 abstract view
.subckt sky130_fd_sc_hd__inv_2 A VGND VNB VPB VPWR Y
.ends

* Black-box entry subcircuit for sky130_fd_sc_hd__or2_1 abstract view
.subckt sky130_fd_sc_hd__or2_1 A B VGND VNB VPB VPWR X
.ends

* Black-box entry subcircuit for sky130_fd_sc_hd__or3_1 abstract view
.subckt sky130_fd_sc_hd__or3_1 A B C VGND VNB VPB VPWR X
.ends

* Black-box entry subcircuit for sky130_fd_sc_hd__o311a_1 abstract view
.subckt sky130_fd_sc_hd__o311a_1 A1 A2 A3 B1 C1 VGND VNB VPB VPWR X
.ends

* Black-box entry subcircuit for sky130_fd_sc_hd__decap_8 abstract view
.subckt sky130_fd_sc_hd__decap_8 VGND VNB VPB VPWR
.ends

* Black-box entry subcircuit for sky130_fd_sc_hd__tapvpwrvgnd_1 abstract view
.subckt sky130_fd_sc_hd__tapvpwrvgnd_1 VGND VPWR
.ends

* Black-box entry subcircuit for sky130_fd_sc_hd__and3b_1 abstract view
.subckt sky130_fd_sc_hd__and3b_1 A_N B C VGND VNB VPB VPWR X
.ends

* Black-box entry subcircuit for sky130_fd_sc_hd__dfrtp_2 abstract view
.subckt sky130_fd_sc_hd__dfrtp_2 CLK D RESET_B VGND VNB VPB VPWR Q
.ends

* Black-box entry subcircuit for sky130_fd_sc_hd__and3_1 abstract view
.subckt sky130_fd_sc_hd__and3_1 A B C VGND VNB VPB VPWR X
.ends

* Black-box entry subcircuit for sky130_fd_sc_hd__decap_3 abstract view
.subckt sky130_fd_sc_hd__decap_3 VGND VNB VPB VPWR
.ends

* Black-box entry subcircuit for sky130_fd_sc_hd__a21o_1 abstract view
.subckt sky130_fd_sc_hd__a21o_1 A1 A2 B1 VGND VNB VPB VPWR X
.ends

* Black-box entry subcircuit for sky130_fd_sc_hd__o21ba_1 abstract view
.subckt sky130_fd_sc_hd__o21ba_1 A1 A2 B1_N VGND VNB VPB VPWR X
.ends

* Black-box entry subcircuit for sky130_fd_sc_hd__dfrtp_1 abstract view
.subckt sky130_fd_sc_hd__dfrtp_1 CLK D RESET_B VGND VNB VPB VPWR Q
.ends

* Black-box entry subcircuit for sky130_fd_sc_hd__decap_4 abstract view
.subckt sky130_fd_sc_hd__decap_4 VGND VNB VPB VPWR
.ends

* Black-box entry subcircuit for sky130_fd_sc_hd__nor2_1 abstract view
.subckt sky130_fd_sc_hd__nor2_1 A B VGND VNB VPB VPWR Y
.ends

* Black-box entry subcircuit for sky130_fd_sc_hd__o211a_1 abstract view
.subckt sky130_fd_sc_hd__o211a_1 A1 A2 B1 C1 VGND VNB VPB VPWR X
.ends

* Black-box entry subcircuit for sky130_fd_sc_hd__o22ai_1 abstract view
.subckt sky130_fd_sc_hd__o22ai_1 A1 A2 B1 B2 VGND VNB VPB VPWR Y
.ends

* Black-box entry subcircuit for sky130_fd_sc_hd__a21oi_1 abstract view
.subckt sky130_fd_sc_hd__a21oi_1 A1 A2 B1 VGND VNB VPB VPWR Y
.ends

* Black-box entry subcircuit for sky130_fd_sc_hd__clkinv_2 abstract view
.subckt sky130_fd_sc_hd__clkinv_2 A VGND VNB VPB VPWR Y
.ends

* Black-box entry subcircuit for sky130_fd_sc_hd__a2bb2o_1 abstract view
.subckt sky130_fd_sc_hd__a2bb2o_1 A1_N A2_N B1 B2 VGND VNB VPB VPWR X
.ends

* Black-box entry subcircuit for sky130_fd_sc_hd__nand2_1 abstract view
.subckt sky130_fd_sc_hd__nand2_1 A B VGND VNB VPB VPWR Y
.ends

* Black-box entry subcircuit for sky130_fd_sc_hd__and2_4 abstract view
.subckt sky130_fd_sc_hd__and2_4 A B VGND VNB VPB VPWR X
.ends

* Black-box entry subcircuit for sky130_fd_sc_hd__xnor2_1 abstract view
.subckt sky130_fd_sc_hd__xnor2_1 A B VGND VNB VPB VPWR Y
.ends

* Black-box entry subcircuit for sky130_fd_sc_hd__a221oi_2 abstract view
.subckt sky130_fd_sc_hd__a221oi_2 A1 A2 B1 B2 C1 VGND VNB VPB VPWR Y
.ends

* Black-box entry subcircuit for sky130_fd_sc_hd__a31o_1 abstract view
.subckt sky130_fd_sc_hd__a31o_1 A1 A2 A3 B1 VGND VNB VPB VPWR X
.ends

* Black-box entry subcircuit for sky130_fd_sc_hd__o21a_4 abstract view
.subckt sky130_fd_sc_hd__o21a_4 A1 A2 B1 VGND VNB VPB VPWR X
.ends

* Black-box entry subcircuit for sky130_fd_sc_hd__decap_6 abstract view
.subckt sky130_fd_sc_hd__decap_6 VGND VNB VPB VPWR
.ends

* Black-box entry subcircuit for sky130_fd_sc_hd__and4_1 abstract view
.subckt sky130_fd_sc_hd__and4_1 A B C D VGND VNB VPB VPWR X
.ends

* Black-box entry subcircuit for sky130_fd_sc_hd__o211ai_1 abstract view
.subckt sky130_fd_sc_hd__o211ai_1 A1 A2 B1 C1 VGND VNB VPB VPWR Y
.ends

* Black-box entry subcircuit for sky130_fd_sc_hd__o22a_1 abstract view
.subckt sky130_fd_sc_hd__o22a_1 A1 A2 B1 B2 VGND VNB VPB VPWR X
.ends

* Black-box entry subcircuit for sky130_fd_sc_hd__a21boi_1 abstract view
.subckt sky130_fd_sc_hd__a21boi_1 A1 A2 B1_N VGND VNB VPB VPWR Y
.ends

* Black-box entry subcircuit for sky130_fd_sc_hd__clkbuf_16 abstract view
.subckt sky130_fd_sc_hd__clkbuf_16 A VGND VNB VPB VPWR X
.ends

* Black-box entry subcircuit for sky130_fd_sc_hd__nand2b_1 abstract view
.subckt sky130_fd_sc_hd__nand2b_1 A_N B VGND VNB VPB VPWR Y
.ends

* Black-box entry subcircuit for sky130_fd_sc_hd__o21ai_1 abstract view
.subckt sky130_fd_sc_hd__o21ai_1 A1 A2 B1 VGND VNB VPB VPWR Y
.ends

* Black-box entry subcircuit for sky130_fd_sc_hd__o221a_1 abstract view
.subckt sky130_fd_sc_hd__o221a_1 A1 A2 B1 B2 C1 VGND VNB VPB VPWR X
.ends

* Black-box entry subcircuit for sky130_fd_sc_hd__a22o_1 abstract view
.subckt sky130_fd_sc_hd__a22o_1 A1 A2 B1 B2 VGND VNB VPB VPWR X
.ends

* Black-box entry subcircuit for sky130_fd_sc_hd__buf_2 abstract view
.subckt sky130_fd_sc_hd__buf_2 A VGND VNB VPB VPWR X
.ends

* Black-box entry subcircuit for sky130_fd_sc_hd__buf_6 abstract view
.subckt sky130_fd_sc_hd__buf_6 A VGND VNB VPB VPWR X
.ends

* Black-box entry subcircuit for sky130_fd_sc_hd__or4b_4 abstract view
.subckt sky130_fd_sc_hd__or4b_4 A B C D_N VGND VNB VPB VPWR X
.ends

* Black-box entry subcircuit for sky130_fd_sc_hd__or3_4 abstract view
.subckt sky130_fd_sc_hd__or3_4 A B C VGND VNB VPB VPWR X
.ends

* Black-box entry subcircuit for sky130_fd_sc_hd__and2b_1 abstract view
.subckt sky130_fd_sc_hd__and2b_1 A_N B VGND VNB VPB VPWR X
.ends

* Black-box entry subcircuit for sky130_fd_sc_hd__buf_4 abstract view
.subckt sky130_fd_sc_hd__buf_4 A VGND VNB VPB VPWR X
.ends

* Black-box entry subcircuit for sky130_fd_sc_hd__a221o_1 abstract view
.subckt sky130_fd_sc_hd__a221o_1 A1 A2 B1 B2 C1 VGND VNB VPB VPWR X
.ends

* Black-box entry subcircuit for sky130_fd_sc_hd__clkbuf_4 abstract view
.subckt sky130_fd_sc_hd__clkbuf_4 A VGND VNB VPB VPWR X
.ends

* Black-box entry subcircuit for sky130_fd_sc_hd__clkbuf_1 abstract view
.subckt sky130_fd_sc_hd__clkbuf_1 A VGND VNB VPB VPWR X
.ends

* Black-box entry subcircuit for sky130_fd_sc_hd__buf_1 abstract view
.subckt sky130_fd_sc_hd__buf_1 A VGND VNB VPB VPWR X
.ends

* Black-box entry subcircuit for sky130_fd_sc_hd__dlymetal6s2s_1 abstract view
.subckt sky130_fd_sc_hd__dlymetal6s2s_1 A VGND VNB VPB VPWR X
.ends

* Black-box entry subcircuit for sky130_fd_sc_hd__a32o_1 abstract view
.subckt sky130_fd_sc_hd__a32o_1 A1 A2 A3 B1 B2 VGND VNB VPB VPWR X
.ends

* Black-box entry subcircuit for sky130_fd_sc_hd__o31ai_1 abstract view
.subckt sky130_fd_sc_hd__o31ai_1 A1 A2 A3 B1 VGND VNB VPB VPWR Y
.ends

* Black-box entry subcircuit for sky130_fd_sc_hd__or4_2 abstract view
.subckt sky130_fd_sc_hd__or4_2 A B C D VGND VNB VPB VPWR X
.ends

* Black-box entry subcircuit for sky130_fd_sc_hd__o31a_1 abstract view
.subckt sky130_fd_sc_hd__o31a_1 A1 A2 A3 B1 VGND VNB VPB VPWR X
.ends

* Black-box entry subcircuit for sky130_fd_sc_hd__nand4b_1 abstract view
.subckt sky130_fd_sc_hd__nand4b_1 A_N B C D VGND VNB VPB VPWR Y
.ends

* Black-box entry subcircuit for sky130_fd_sc_hd__nand3b_1 abstract view
.subckt sky130_fd_sc_hd__nand3b_1 A_N B C VGND VNB VPB VPWR Y
.ends

* Black-box entry subcircuit for sky130_fd_sc_hd__and4bb_1 abstract view
.subckt sky130_fd_sc_hd__and4bb_1 A_N B_N C D VGND VNB VPB VPWR X
.ends

* Black-box entry subcircuit for sky130_fd_sc_hd__or4_4 abstract view
.subckt sky130_fd_sc_hd__or4_4 A B C D VGND VNB VPB VPWR X
.ends

* Black-box entry subcircuit for sky130_fd_sc_hd__clkbuf_2 abstract view
.subckt sky130_fd_sc_hd__clkbuf_2 A VGND VNB VPB VPWR X
.ends

* Black-box entry subcircuit for sky130_fd_sc_hd__or4b_1 abstract view
.subckt sky130_fd_sc_hd__or4b_1 A B C D_N VGND VNB VPB VPWR X
.ends

* Black-box entry subcircuit for sky130_fd_sc_hd__xor2_1 abstract view
.subckt sky130_fd_sc_hd__xor2_1 A B VGND VNB VPB VPWR X
.ends

.subckt freq_psc VGND VPWR clk out psc[0] psc[10] psc[11] psc[12] psc[13] psc[14]
+ psc[15] psc[1] psc[2] psc[3] psc[4] psc[5] psc[6] psc[7] psc[8] psc[9] rst
X_294_ counter\[14\] _104_ VGND VGND VPWR VPWR _106_ sky130_fd_sc_hd__and2_1
XFILLER_13_100 VGND VGND VPWR VPWR sky130_fd_sc_hd__fill_2
Xrebuffer7 net28 VGND VGND VPWR VPWR net29 sky130_fd_sc_hd__dlygate4sd1_1
XFILLER_13_111 VGND VGND VPWR VPWR sky130_fd_sc_hd__fill_1
X_363_ clknet_1_0__leaf_clk _001_ _028_ VGND VGND VPWR VPWR counter\[10\] sky130_fd_sc_hd__dfrtp_4
XFILLER_12_43 VPWR VGND VPWR VGND sky130_ef_sc_hd__decap_12
X_346_ net21 VGND VGND VPWR VPWR _028_ sky130_fd_sc_hd__inv_2
X_277_ counter\[8\] _092_ VGND VGND VPWR VPWR _095_ sky130_fd_sc_hd__or2_1
X_200_ net15 net16 net2 VGND VGND VPWR VPWR _168_ sky130_fd_sc_hd__or3_1
XFILLER_0_57 VGND VGND VPWR VPWR sky130_fd_sc_hd__fill_1
X_329_ net6 _157_ _110_ _111_ _112_ VGND VGND VPWR VPWR _139_ sky130_fd_sc_hd__o311a_1
XFILLER_18_64 VGND VGND VPWR VPWR sky130_fd_sc_hd__decap_8
XTAP_TAPCELL_ROW_5_56 VGND VPWR sky130_fd_sc_hd__tapvpwrvgnd_1
XTAP_TAPCELL_ROW_20_87 VGND VPWR sky130_fd_sc_hd__tapvpwrvgnd_1
XFILLER_13_3 VGND VGND VPWR VPWR sky130_fd_sc_hd__fill_2
XTAP_TAPCELL_ROW_15_76 VGND VPWR sky130_fd_sc_hd__tapvpwrvgnd_1
XFILLER_15_54 VGND VGND VPWR VPWR sky130_fd_sc_hd__fill_2
XFILLER_3_57 VPWR VGND VPWR VGND sky130_ef_sc_hd__decap_12
X_293_ _104_ _105_ net26 VGND VGND VPWR VPWR _004_ sky130_fd_sc_hd__and3b_1
X_362_ clknet_1_0__leaf_clk _015_ _027_ VGND VGND VPWR VPWR counter\[9\] sky130_fd_sc_hd__dfrtp_2
XFILLER_12_55 VGND VGND VPWR VPWR sky130_fd_sc_hd__fill_1
X_276_ counter\[7\] counter\[8\] _090_ VGND VGND VPWR VPWR _094_ sky130_fd_sc_hd__and3_1
X_345_ net21 VGND VGND VPWR VPWR _027_ sky130_fd_sc_hd__inv_2
XPHY_EDGE_ROW_21_Right_21 VGND VGND VPWR VPWR sky130_fd_sc_hd__decap_3
XPHY_EDGE_ROW_12_Right_12 VGND VGND VPWR VPWR sky130_fd_sc_hd__decap_3
X_259_ counter\[0\] net27 counter\[2\] VGND VGND VPWR VPWR _083_ sky130_fd_sc_hd__a21o_1
X_328_ _136_ _137_ _114_ VGND VGND VPWR VPWR _138_ sky130_fd_sc_hd__o21ba_1
XTAP_TAPCELL_ROW_5_57 VGND VPWR sky130_fd_sc_hd__tapvpwrvgnd_1
XPHY_EDGE_ROW_16_Left_38 VGND VGND VPWR VPWR sky130_fd_sc_hd__decap_3
XFILLER_6_68 VGND VGND VPWR VPWR sky130_fd_sc_hd__decap_8
XTAP_TAPCELL_ROW_15_77 VGND VPWR sky130_fd_sc_hd__tapvpwrvgnd_1
XPHY_EDGE_ROW_6_Right_6 VGND VGND VPWR VPWR sky130_fd_sc_hd__decap_3
X_292_ counter\[13\] _102_ VGND VGND VPWR VPWR _105_ sky130_fd_sc_hd__or2_1
XFILLER_9_106 VGND VGND VPWR VPWR sky130_fd_sc_hd__fill_2
X_361_ clknet_1_0__leaf_clk _014_ _026_ VGND VGND VPWR VPWR counter\[8\] sky130_fd_sc_hd__dfrtp_1
XFILLER_3_69 VGND VGND VPWR VPWR sky130_fd_sc_hd__decap_4
XPHY_EDGE_ROW_19_Left_41 VGND VGND VPWR VPWR sky130_fd_sc_hd__decap_3
X_275_ _092_ _093_ net19 VGND VGND VPWR VPWR _013_ sky130_fd_sc_hd__and3b_1
X_344_ net21 VGND VGND VPWR VPWR _026_ sky130_fd_sc_hd__inv_2
XPHY_EDGE_ROW_4_Left_26 VGND VGND VPWR VPWR sky130_fd_sc_hd__decap_3
XFILLER_3_3 VPWR VGND VPWR VGND sky130_ef_sc_hd__decap_12
XFILLER_0_15 VPWR VGND VPWR VGND sky130_ef_sc_hd__decap_12
X_189_ counter\[12\] VGND VGND VPWR VPWR _158_ sky130_fd_sc_hd__inv_2
X_258_ counter\[0\] counter\[1\] counter\[2\] VGND VGND VPWR VPWR _082_ sky130_fd_sc_hd__and3_1
XFILLER_9_57 VGND VGND VPWR VPWR sky130_fd_sc_hd__decap_3
X_327_ _115_ _116_ VGND VGND VPWR VPWR _137_ sky130_fd_sc_hd__nor2_1
XFILLER_20_89 VGND VGND VPWR VPWR sky130_fd_sc_hd__fill_1
XFILLER_6_25 VGND VGND VPWR VPWR sky130_fd_sc_hd__decap_3
XFILLER_15_45 VGND VGND VPWR VPWR sky130_fd_sc_hd__fill_1
X_291_ counter\[13\] counter\[12\] _100_ VGND VGND VPWR VPWR _104_ sky130_fd_sc_hd__and3_1
XFILLER_9_129 VGND VGND VPWR VPWR sky130_fd_sc_hd__fill_1
X_360_ clknet_1_0__leaf_clk _013_ _025_ VGND VGND VPWR VPWR counter\[7\] sky130_fd_sc_hd__dfrtp_2
XFILLER_3_15 VPWR VGND VPWR VGND sky130_ef_sc_hd__decap_12
XFILLER_5_7 VGND VGND VPWR VPWR sky130_fd_sc_hd__fill_1
X_274_ counter\[7\] _090_ VGND VGND VPWR VPWR _093_ sky130_fd_sc_hd__or2_1
X_343_ net21 VGND VGND VPWR VPWR _025_ sky130_fd_sc_hd__inv_2
XPHY_EDGE_ROW_20_Left_42 VGND VGND VPWR VPWR sky130_fd_sc_hd__decap_3
XFILLER_0_27 VGND VGND VPWR VPWR sky130_fd_sc_hd__fill_1
X_188_ counter\[13\] VGND VGND VPWR VPWR _157_ sky130_fd_sc_hd__inv_2
X_257_ _049_ net20 _081_ VGND VGND VPWR VPWR _007_ sky130_fd_sc_hd__and3_1
X_326_ _118_ _135_ _115_ _117_ VGND VGND VPWR VPWR _136_ sky130_fd_sc_hd__o211a_1
XFILLER_18_56 VGND VGND VPWR VPWR sky130_fd_sc_hd__decap_4
X_309_ _147_ net15 net16 _152_ VGND VGND VPWR VPWR _119_ sky130_fd_sc_hd__o22ai_1
XFILLER_1_70 VGND VGND VPWR VPWR sky130_fd_sc_hd__fill_1
XFILLER_15_79 VGND VGND VPWR VPWR sky130_fd_sc_hd__fill_2
XFILLER_15_57 VGND VGND VPWR VPWR sky130_fd_sc_hd__fill_2
XFILLER_11_3 VGND VGND VPWR VPWR sky130_fd_sc_hd__decap_4
XFILLER_3_27 VGND VGND VPWR VPWR sky130_fd_sc_hd__decap_3
X_290_ _102_ _103_ net19 VGND VGND VPWR VPWR _003_ sky130_fd_sc_hd__and3b_1
XFILLER_10_129 VGND VGND VPWR VPWR sky130_fd_sc_hd__fill_1
X_273_ counter\[7\] _090_ VGND VGND VPWR VPWR _092_ sky130_fd_sc_hd__and2_1
X_342_ net22 VGND VGND VPWR VPWR _024_ sky130_fd_sc_hd__inv_2
XFILLER_2_125 VGND VGND VPWR VPWR sky130_fd_sc_hd__fill_2
XFILLER_4_70 VGND VGND VPWR VPWR sky130_fd_sc_hd__decap_3
X_187_ net7 VGND VGND VPWR VPWR _156_ sky130_fd_sc_hd__inv_2
XFILLER_9_15 VPWR VGND VPWR VGND sky130_ef_sc_hd__decap_12
X_256_ counter\[0\] net28 VGND VGND VPWR VPWR _081_ sky130_fd_sc_hd__or2_1
X_325_ _120_ _134_ _119_ VGND VGND VPWR VPWR _135_ sky130_fd_sc_hd__a21oi_1
Xclkload0 clknet_1_0__leaf_clk VGND VGND VPWR VPWR clkload0/Y sky130_fd_sc_hd__clkinv_2
X_308_ counter\[9\] _153_ _152_ net16 VGND VGND VPWR VPWR _118_ sky130_fd_sc_hd__a2bb2o_1
X_239_ counter\[15\] _064_ VGND VGND VPWR VPWR _065_ sky130_fd_sc_hd__nand2_1
XFILLER_20_36 VPWR VGND VPWR VGND sky130_ef_sc_hd__decap_12
XTAP_TAPCELL_ROW_21_90 VGND VPWR sky130_fd_sc_hd__tapvpwrvgnd_1
XPHY_EDGE_ROW_19_Right_19 VGND VGND VPWR VPWR sky130_fd_sc_hd__decap_3
X_341_ net22 VGND VGND VPWR VPWR _023_ sky130_fd_sc_hd__inv_2
X_272_ _090_ _091_ net20 VGND VGND VPWR VPWR _012_ sky130_fd_sc_hd__and3b_1
XFILLER_12_37 VGND VGND VPWR VPWR sky130_fd_sc_hd__fill_1
X_324_ _122_ _133_ _121_ VGND VGND VPWR VPWR _134_ sky130_fd_sc_hd__a21o_1
XFILLER_0_29 VPWR VGND VPWR VGND sky130_ef_sc_hd__decap_12
X_186_ net4 VGND VGND VPWR VPWR _155_ sky130_fd_sc_hd__inv_2
XFILLER_9_27 VGND VGND VPWR VPWR sky130_fd_sc_hd__decap_3
X_255_ _145_ net26 VGND VGND VPWR VPWR _000_ sky130_fd_sc_hd__and2_4
XFILLER_1_3 VPWR VGND VPWR VGND sky130_ef_sc_hd__decap_12
X_238_ net7 _063_ VGND VGND VPWR VPWR _064_ sky130_fd_sc_hd__xnor2_1
X_307_ counter\[9\] _153_ _154_ counter\[10\] _116_ VGND VGND VPWR VPWR _117_ sky130_fd_sc_hd__a221oi_2
XFILLER_20_48 VGND VGND VPWR VPWR sky130_fd_sc_hd__fill_1
XFILLER_20_15 VPWR VGND VPWR VGND sky130_ef_sc_hd__decap_12
XFILLER_19_111 VGND VGND VPWR VPWR sky130_fd_sc_hd__fill_1
XFILLER_10_70 VGND VGND VPWR VPWR sky130_fd_sc_hd__fill_1
XFILLER_10_92 VGND VGND VPWR VPWR sky130_fd_sc_hd__decap_8
XTAP_TAPCELL_ROW_21_91 VGND VPWR sky130_fd_sc_hd__tapvpwrvgnd_1
XFILLER_7_71 VGND VGND VPWR VPWR sky130_fd_sc_hd__fill_1
XFILLER_13_128 VGND VGND VPWR VPWR sky130_fd_sc_hd__fill_2
XFILLER_12_27 VGND VGND VPWR VPWR sky130_fd_sc_hd__fill_1
X_340_ net22 VGND VGND VPWR VPWR _022_ sky130_fd_sc_hd__inv_2
X_271_ counter\[6\] _088_ VGND VGND VPWR VPWR _091_ sky130_fd_sc_hd__or2_1
XFILLER_4_83 VGND VGND VPWR VPWR sky130_fd_sc_hd__fill_1
X_185_ net3 VGND VGND VPWR VPWR _154_ sky130_fd_sc_hd__inv_2
X_323_ _124_ _130_ _132_ _123_ VGND VGND VPWR VPWR _133_ sky130_fd_sc_hd__a31o_1
X_254_ _076_ _075_ _079_ VGND VGND VPWR VPWR _080_ sky130_fd_sc_hd__o21a_4
XFILLER_2_105 VPWR VGND VPWR VGND sky130_ef_sc_hd__decap_12
XFILLER_13_92 VGND VGND VPWR VPWR sky130_fd_sc_hd__fill_2
XFILLER_18_15 VGND VGND VPWR VPWR sky130_fd_sc_hd__decap_6
X_237_ net6 net25 VGND VGND VPWR VPWR _063_ sky130_fd_sc_hd__nor2_1
X_306_ counter\[11\] _155_ VGND VGND VPWR VPWR _116_ sky130_fd_sc_hd__and2_1
XFILLER_20_27 VGND VGND VPWR VPWR sky130_fd_sc_hd__fill_1
XFILLER_1_62 VGND VGND VPWR VPWR sky130_fd_sc_hd__decap_4
XPHY_EDGE_ROW_11_Left_33 VGND VGND VPWR VPWR sky130_fd_sc_hd__decap_3
XFILLER_15_27 VPWR VGND VPWR VGND sky130_ef_sc_hd__decap_12
XPHY_EDGE_ROW_1_Right_1 VGND VGND VPWR VPWR sky130_fd_sc_hd__decap_3
XFILLER_21_92 VGND VGND VPWR VPWR sky130_fd_sc_hd__fill_2
XFILLER_13_107 VGND VGND VPWR VPWR sky130_fd_sc_hd__fill_1
XFILLER_16_81 VGND VGND VPWR VPWR sky130_fd_sc_hd__decap_3
X_270_ counter\[6\] counter\[4\] counter\[5\] _084_ VGND VGND VPWR VPWR _090_ sky130_fd_sc_hd__and4_1
XFILLER_4_62 VGND VGND VPWR VPWR sky130_fd_sc_hd__decap_8
X_322_ _127_ _128_ _131_ _125_ VGND VGND VPWR VPWR _132_ sky130_fd_sc_hd__o211ai_1
XFILLER_2_117 VGND VGND VPWR VPWR sky130_fd_sc_hd__decap_8
X_184_ net2 VGND VGND VPWR VPWR _153_ sky130_fd_sc_hd__inv_2
X_253_ _065_ _067_ _078_ _069_ VGND VGND VPWR VPWR _079_ sky130_fd_sc_hd__a31o_1
X_236_ _059_ counter\[13\] _060_ VGND VGND VPWR VPWR _062_ sky130_fd_sc_hd__and3_1
X_305_ _154_ counter\[10\] _155_ counter\[11\] VGND VGND VPWR VPWR _115_ sky130_fd_sc_hd__o22a_1
XFILLER_1_96 VPWR VGND VPWR VGND sky130_ef_sc_hd__decap_12
XFILLER_1_74 VGND VGND VPWR VPWR sky130_fd_sc_hd__fill_1
XFILLER_19_113 VPWR VGND VPWR VGND sky130_ef_sc_hd__decap_12
XFILLER_10_83 VGND VGND VPWR VPWR sky130_fd_sc_hd__fill_1
X_219_ net10 _044_ _160_ VGND VGND VPWR VPWR _045_ sky130_fd_sc_hd__a21boi_1
XFILLER_16_105 VGND VGND VPWR VPWR sky130_fd_sc_hd__decap_6
XFILLER_15_39 VGND VGND VPWR VPWR sky130_fd_sc_hd__decap_6
XFILLER_21_82 VGND VGND VPWR VPWR sky130_fd_sc_hd__fill_2
Xclkbuf_0_clk clk VGND VGND VPWR VPWR clknet_0_clk sky130_fd_sc_hd__clkbuf_16
XFILLER_11_7 VGND VGND VPWR VPWR sky130_fd_sc_hd__fill_1
XPHY_EDGE_ROW_15_Right_15 VGND VGND VPWR VPWR sky130_fd_sc_hd__decap_3
XFILLER_16_93 VPWR VGND VPWR VGND sky130_ef_sc_hd__decap_12
XTAP_TAPCELL_ROW_3_52 VGND VPWR sky130_fd_sc_hd__tapvpwrvgnd_1
XFILLER_12_29 VGND VGND VPWR VPWR sky130_fd_sc_hd__decap_8
XFILLER_4_85 VGND VGND VPWR VPWR sky130_fd_sc_hd__decap_4
XTAP_TAPCELL_ROW_13_72 VGND VPWR sky130_fd_sc_hd__tapvpwrvgnd_1
X_183_ counter\[8\] VGND VGND VPWR VPWR _152_ sky130_fd_sc_hd__inv_2
X_252_ _061_ _068_ _077_ VGND VGND VPWR VPWR _078_ sky130_fd_sc_hd__or3_1
X_321_ _126_ _129_ VGND VGND VPWR VPWR _131_ sky130_fd_sc_hd__nor2_1
X_235_ _059_ _060_ counter\[13\] VGND VGND VPWR VPWR _061_ sky130_fd_sc_hd__a21oi_1
X_304_ _111_ _113_ VGND VGND VPWR VPWR _114_ sky130_fd_sc_hd__nand2b_1
XFILLER_20_29 VGND VGND VPWR VPWR sky130_fd_sc_hd__fill_1
XFILLER_19_125 VGND VGND VPWR VPWR sky130_fd_sc_hd__decap_4
XFILLER_19_93 VGND VGND VPWR VPWR sky130_fd_sc_hd__fill_2
X_218_ net1 net8 net9 VGND VGND VPWR VPWR _044_ sky130_fd_sc_hd__or3_1
XFILLER_16_117 VGND VGND VPWR VPWR sky130_fd_sc_hd__fill_1
XTAP_TAPCELL_ROW_3_53 VGND VPWR sky130_fd_sc_hd__tapvpwrvgnd_1
XFILLER_4_42 VGND VGND VPWR VPWR sky130_fd_sc_hd__fill_1
XTAP_TAPCELL_ROW_13_73 VGND VPWR sky130_fd_sc_hd__tapvpwrvgnd_1
X_182_ net14 VGND VGND VPWR VPWR _151_ sky130_fd_sc_hd__inv_2
X_251_ counter\[12\] _056_ _062_ VGND VGND VPWR VPWR _077_ sky130_fd_sc_hd__a21oi_1
X_320_ _125_ _126_ VGND VGND VPWR VPWR _130_ sky130_fd_sc_hd__nand2_1
XFILLER_18_29 VGND VGND VPWR VPWR sky130_fd_sc_hd__decap_3
X_234_ net4 _172_ net5 VGND VGND VPWR VPWR _060_ sky130_fd_sc_hd__o21ai_1
X_303_ net6 _157_ _158_ net5 _112_ VGND VGND VPWR VPWR _113_ sky130_fd_sc_hd__o221a_1
X_217_ counter\[5\] _039_ _042_ counter\[4\] VGND VGND VPWR VPWR _043_ sky130_fd_sc_hd__a22o_1
Xoutput18 net18 VGND VGND VPWR VPWR out sky130_fd_sc_hd__buf_2
XFILLER_21_62 VGND VGND VPWR VPWR sky130_fd_sc_hd__decap_4
XPHY_EDGE_ROW_15_Left_37 VGND VGND VPWR VPWR sky130_fd_sc_hd__decap_3
XPHY_EDGE_ROW_5_Right_5 VGND VGND VPWR VPWR sky130_fd_sc_hd__decap_3
XFILLER_12_121 VGND VGND VPWR VPWR sky130_fd_sc_hd__decap_3
XFILLER_4_32 VGND VGND VPWR VPWR sky130_fd_sc_hd__decap_6
XFILLER_4_54 VGND VGND VPWR VPWR sky130_fd_sc_hd__fill_1
X_181_ net13 VGND VGND VPWR VPWR _150_ sky130_fd_sc_hd__inv_2
XPHY_EDGE_ROW_18_Left_40 VGND VGND VPWR VPWR sky130_fd_sc_hd__decap_3
Xfanout20 _080_ VGND VGND VPWR VPWR net20 sky130_fd_sc_hd__buf_6
X_250_ _068_ _070_ _069_ _065_ VGND VGND VPWR VPWR _076_ sky130_fd_sc_hd__or4b_4
XTAP_TAPCELL_ROW_0_44 VGND VPWR sky130_fd_sc_hd__tapvpwrvgnd_1
XTAP_TAPCELL_ROW_9_64 VGND VPWR sky130_fd_sc_hd__tapvpwrvgnd_1
XPHY_EDGE_ROW_3_Left_25 VGND VGND VPWR VPWR sky130_fd_sc_hd__decap_3
X_302_ _156_ counter\[14\] counter\[15\] VGND VGND VPWR VPWR _112_ sky130_fd_sc_hd__a21oi_1
X_233_ _172_ net4 net5 VGND VGND VPWR VPWR _059_ sky130_fd_sc_hd__or3_4
XTAP_TAPCELL_ROW_19_84 VGND VPWR sky130_fd_sc_hd__tapvpwrvgnd_1
X_216_ _161_ _041_ VGND VGND VPWR VPWR _042_ sky130_fd_sc_hd__and2b_1
XFILLER_18_3 VPWR VGND VPWR VGND sky130_ef_sc_hd__decap_12
XFILLER_21_41 VGND VGND VPWR VPWR sky130_fd_sc_hd__decap_4
XFILLER_7_65 VGND VGND VPWR VPWR sky130_fd_sc_hd__decap_6
XFILLER_21_111 VGND VGND VPWR VPWR sky130_fd_sc_hd__fill_1
XPHY_EDGE_ROW_20_Right_20 VGND VGND VPWR VPWR sky130_fd_sc_hd__decap_3
XFILLER_16_85 VGND VGND VPWR VPWR sky130_fd_sc_hd__decap_4
XFILLER_16_74 VGND VGND VPWR VPWR sky130_fd_sc_hd__fill_2
XPHY_EDGE_ROW_11_Right_11 VGND VGND VPWR VPWR sky130_fd_sc_hd__decap_3
XFILLER_5_129 VGND VGND VPWR VPWR sky130_fd_sc_hd__fill_1
X_180_ net11 VGND VGND VPWR VPWR _149_ sky130_fd_sc_hd__inv_2
Xfanout21 net17 VGND VGND VPWR VPWR net21 sky130_fd_sc_hd__buf_4
XFILLER_13_42 VGND VGND VPWR VPWR sky130_fd_sc_hd__decap_4
XTAP_TAPCELL_ROW_0_45 VGND VPWR sky130_fd_sc_hd__tapvpwrvgnd_1
XTAP_TAPCELL_ROW_9_65 VGND VPWR sky130_fd_sc_hd__tapvpwrvgnd_1
X_232_ counter\[12\] _056_ VGND VGND VPWR VPWR _058_ sky130_fd_sc_hd__and2_1
X_301_ net6 _157_ _158_ net5 _110_ VGND VGND VPWR VPWR _111_ sky130_fd_sc_hd__a221o_1
XFILLER_1_45 VGND VGND VPWR VPWR sky130_fd_sc_hd__fill_1
XTAP_TAPCELL_ROW_19_85 VGND VPWR sky130_fd_sc_hd__tapvpwrvgnd_1
X_215_ net11 _160_ VGND VGND VPWR VPWR _041_ sky130_fd_sc_hd__nand2_1
XFILLER_7_55 VGND VGND VPWR VPWR sky130_fd_sc_hd__fill_1
XFILLER_5_119 VGND VGND VPWR VPWR sky130_fd_sc_hd__fill_1
XFILLER_4_89 VGND VGND VPWR VPWR sky130_fd_sc_hd__fill_1
Xfanout22 net17 VGND VGND VPWR VPWR net22 sky130_fd_sc_hd__clkbuf_4
XTAP_TAPCELL_ROW_0_46 VGND VPWR sky130_fd_sc_hd__tapvpwrvgnd_1
XFILLER_13_65 VGND VGND VPWR VPWR sky130_fd_sc_hd__fill_1
X_300_ _156_ counter\[14\] VGND VGND VPWR VPWR _110_ sky130_fd_sc_hd__nor2_1
X_231_ counter\[12\] _056_ VGND VGND VPWR VPWR _057_ sky130_fd_sc_hd__nor2_1
XFILLER_1_57 VGND VGND VPWR VPWR sky130_fd_sc_hd__fill_2
XFILLER_19_129 VGND VGND VPWR VPWR sky130_fd_sc_hd__fill_1
XFILLER_19_107 VGND VGND VPWR VPWR sky130_fd_sc_hd__decap_4
XFILLER_10_22 VGND VGND VPWR VPWR sky130_fd_sc_hd__fill_2
XTAP_TAPCELL_ROW_10_66 VGND VPWR sky130_fd_sc_hd__tapvpwrvgnd_1
Xinput1 psc[0] VGND VGND VPWR VPWR net1 sky130_fd_sc_hd__clkbuf_1
X_214_ counter\[6\] _036_ _039_ counter\[5\] VGND VGND VPWR VPWR _040_ sky130_fd_sc_hd__o22a_1
XFILLER_21_113 VPWR VGND VPWR VGND sky130_ef_sc_hd__decap_12
XFILLER_16_54 VPWR VGND VPWR VGND sky130_ef_sc_hd__decap_12
XFILLER_16_43 VGND VGND VPWR VPWR sky130_fd_sc_hd__decap_3
XFILLER_8_106 VGND VGND VPWR VPWR sky130_fd_sc_hd__fill_2
XFILLER_12_113 VGND VGND VPWR VPWR sky130_fd_sc_hd__decap_8
XPHY_EDGE_ROW_9_Right_9 VGND VGND VPWR VPWR sky130_fd_sc_hd__decap_3
XTAP_TAPCELL_ROW_0_47 VGND VPWR sky130_fd_sc_hd__tapvpwrvgnd_1
XFILLER_13_77 VGND VGND VPWR VPWR sky130_fd_sc_hd__fill_1
X_230_ _155_ net23 VGND VGND VPWR VPWR _056_ sky130_fd_sc_hd__xnor2_1
X_359_ clknet_1_1__leaf_clk _012_ _024_ VGND VGND VPWR VPWR counter\[6\] sky130_fd_sc_hd__dfrtp_1
Xinput2 psc[10] VGND VGND VPWR VPWR net2 sky130_fd_sc_hd__buf_1
XPHY_EDGE_ROW_7_Left_29 VGND VGND VPWR VPWR sky130_fd_sc_hd__decap_3
XTAP_TAPCELL_ROW_10_67 VGND VPWR sky130_fd_sc_hd__tapvpwrvgnd_1
X_213_ net12 _161_ VGND VGND VPWR VPWR _039_ sky130_fd_sc_hd__xnor2_1
XTAP_TAPCELL_ROW_21_88 VGND VPWR sky130_fd_sc_hd__tapvpwrvgnd_1
XFILLER_21_55 VGND VGND VPWR VPWR sky130_fd_sc_hd__fill_1
XFILLER_21_103 VGND VGND VPWR VPWR sky130_fd_sc_hd__decap_8
XFILLER_16_3 VPWR VGND VPWR VGND sky130_ef_sc_hd__decap_12
XFILLER_21_125 VGND VGND VPWR VPWR sky130_fd_sc_hd__decap_4
XFILLER_16_66 VGND VGND VPWR VPWR sky130_fd_sc_hd__decap_8
XFILLER_12_103 VGND VGND VPWR VPWR sky130_fd_sc_hd__decap_6
XFILLER_8_129 VGND VGND VPWR VPWR sky130_fd_sc_hd__fill_1
XFILLER_4_25 VGND VGND VPWR VPWR sky130_fd_sc_hd__decap_3
XFILLER_1_113 VPWR VGND VPWR VGND sky130_ef_sc_hd__decap_12
XFILLER_1_15 VPWR VGND VPWR VGND sky130_ef_sc_hd__decap_12
X_358_ clknet_1_1__leaf_clk _011_ _023_ VGND VGND VPWR VPWR counter\[5\] sky130_fd_sc_hd__dfrtp_2
Xinput3 psc[11] VGND VGND VPWR VPWR net3 sky130_fd_sc_hd__buf_1
XPHY_EDGE_ROW_18_Right_18 VGND VGND VPWR VPWR sky130_fd_sc_hd__decap_3
X_289_ counter\[12\] _100_ VGND VGND VPWR VPWR _103_ sky130_fd_sc_hd__or2_1
X_212_ counter\[6\] _036_ _037_ counter\[7\] VGND VGND VPWR VPWR _038_ sky130_fd_sc_hd__a22o_1
XTAP_TAPCELL_ROW_6_58 VGND VPWR sky130_fd_sc_hd__tapvpwrvgnd_1
XTAP_TAPCELL_ROW_21_89 VGND VPWR sky130_fd_sc_hd__tapvpwrvgnd_1
XFILLER_2_80 VGND VGND VPWR VPWR sky130_fd_sc_hd__fill_1
XFILLER_15_101 VGND VGND VPWR VPWR sky130_fd_sc_hd__decap_8
XTAP_TAPCELL_ROW_16_78 VGND VPWR sky130_fd_sc_hd__tapvpwrvgnd_1
XPHY_EDGE_ROW_10_Left_32 VGND VGND VPWR VPWR sky130_fd_sc_hd__decap_3
XFILLER_16_89 VGND VGND VPWR VPWR sky130_fd_sc_hd__fill_1
XPHY_EDGE_ROW_0_Right_0 VGND VGND VPWR VPWR sky130_fd_sc_hd__decap_3
XFILLER_4_48 VGND VGND VPWR VPWR sky130_fd_sc_hd__decap_6
XFILLER_1_125 VGND VGND VPWR VPWR sky130_fd_sc_hd__decap_4
XFILLER_8_6 VGND VGND VPWR VPWR sky130_fd_sc_hd__decap_4
XFILLER_13_35 VGND VGND VPWR VPWR sky130_fd_sc_hd__fill_2
XFILLER_1_27 VPWR VGND VPWR VGND sky130_ef_sc_hd__decap_12
XFILLER_6_3 VGND VGND VPWR VPWR sky130_fd_sc_hd__fill_1
X_357_ clknet_1_1__leaf_clk _010_ _022_ VGND VGND VPWR VPWR counter\[4\] sky130_fd_sc_hd__dfrtp_4
X_288_ counter\[12\] _100_ VGND VGND VPWR VPWR _102_ sky130_fd_sc_hd__and2_1
Xinput4 psc[12] VGND VGND VPWR VPWR net4 sky130_fd_sc_hd__buf_1
X_211_ net14 _035_ _163_ VGND VGND VPWR VPWR _037_ sky130_fd_sc_hd__a21oi_1
XFILLER_19_23 VGND VGND VPWR VPWR sky130_fd_sc_hd__fill_2
XTAP_TAPCELL_ROW_6_59 VGND VPWR sky130_fd_sc_hd__tapvpwrvgnd_1
XFILLER_21_57 VGND VGND VPWR VPWR sky130_fd_sc_hd__fill_2
XFILLER_7_37 VGND VGND VPWR VPWR sky130_fd_sc_hd__decap_3
XTAP_TAPCELL_ROW_16_79 VGND VPWR sky130_fd_sc_hd__tapvpwrvgnd_1
XFILLER_21_3 VPWR VGND VPWR VGND sky130_ef_sc_hd__decap_12
XFILLER_4_123 VGND VGND VPWR VPWR sky130_fd_sc_hd__decap_6
XFILLER_13_69 VGND VGND VPWR VPWR sky130_fd_sc_hd__decap_8
XFILLER_5_81 VGND VGND VPWR VPWR sky130_fd_sc_hd__fill_1
XFILLER_1_39 VGND VGND VPWR VPWR sky130_fd_sc_hd__decap_6
Xinput5 psc[13] VGND VGND VPWR VPWR net5 sky130_fd_sc_hd__buf_1
X_356_ clknet_1_1__leaf_clk _009_ _021_ VGND VGND VPWR VPWR counter\[3\] sky130_fd_sc_hd__dfrtp_2
X_287_ _100_ _101_ net19 VGND VGND VPWR VPWR _002_ sky130_fd_sc_hd__and3b_1
XFILLER_19_79 VGND VGND VPWR VPWR sky130_fd_sc_hd__fill_1
XFILLER_10_15 VGND VGND VPWR VPWR sky130_fd_sc_hd__decap_4
X_210_ _150_ _034_ VGND VGND VPWR VPWR _036_ sky130_fd_sc_hd__xnor2_1
X_339_ net22 VGND VGND VPWR VPWR _021_ sky130_fd_sc_hd__inv_2
XFILLER_21_69 VGND VGND VPWR VPWR sky130_fd_sc_hd__decap_4
XFILLER_14_3 VGND VGND VPWR VPWR sky130_fd_sc_hd__fill_1
XFILLER_4_17 VGND VGND VPWR VPWR sky130_fd_sc_hd__decap_8
X_355_ clknet_1_1__leaf_clk _008_ _020_ VGND VGND VPWR VPWR counter\[2\] sky130_fd_sc_hd__dfrtp_1
X_286_ counter\[9\] counter\[10\] _094_ counter\[11\] VGND VGND VPWR VPWR _101_ sky130_fd_sc_hd__a31o_1
Xinput6 psc[14] VGND VGND VPWR VPWR net6 sky130_fd_sc_hd__dlymetal6s2s_1
XPHY_EDGE_ROW_14_Right_14 VGND VGND VPWR VPWR sky130_fd_sc_hd__decap_3
X_338_ net22 VGND VGND VPWR VPWR _020_ sky130_fd_sc_hd__inv_2
X_269_ _088_ _089_ net20 VGND VGND VPWR VPWR _011_ sky130_fd_sc_hd__and3b_1
XFILLER_21_48 VGND VGND VPWR VPWR sky130_fd_sc_hd__decap_4
XFILLER_21_15 VPWR VGND VPWR VGND sky130_ef_sc_hd__decap_12
XFILLER_21_129 VGND VGND VPWR VPWR sky130_fd_sc_hd__fill_1
XTAP_TAPCELL_ROW_7_60 VGND VPWR sky130_fd_sc_hd__tapvpwrvgnd_1
XFILLER_11_81 VPWR VGND VPWR VGND sky130_ef_sc_hd__decap_12
XFILLER_16_15 VPWR VGND VPWR VGND sky130_ef_sc_hd__decap_12
XFILLER_7_111 VGND VGND VPWR VPWR sky130_fd_sc_hd__fill_1
XPHY_EDGE_ROW_4_Right_4 VGND VGND VPWR VPWR sky130_fd_sc_hd__decap_3
XPHY_EDGE_ROW_14_Left_36 VGND VGND VPWR VPWR sky130_fd_sc_hd__decap_3
XTAP_TAPCELL_ROW_17_80 VGND VPWR sky130_fd_sc_hd__tapvpwrvgnd_1
X_354_ clknet_1_1__leaf_clk _007_ _019_ VGND VGND VPWR VPWR counter\[1\] sky130_fd_sc_hd__dfrtp_2
X_285_ counter\[11\] counter\[10\] _096_ VGND VGND VPWR VPWR _100_ sky130_fd_sc_hd__and3_1
Xinput7 psc[15] VGND VGND VPWR VPWR net7 sky130_fd_sc_hd__buf_1
XFILLER_19_15 VGND VGND VPWR VPWR sky130_fd_sc_hd__decap_8
XPHY_EDGE_ROW_2_Left_24 VGND VGND VPWR VPWR sky130_fd_sc_hd__decap_3
XFILLER_4_3 VGND VGND VPWR VPWR sky130_fd_sc_hd__decap_6
X_199_ counter\[9\] _165_ _166_ counter\[8\] _164_ VGND VGND VPWR VPWR _167_ sky130_fd_sc_hd__a32o_1
X_268_ counter\[4\] _084_ counter\[5\] VGND VGND VPWR VPWR _089_ sky130_fd_sc_hd__a21o_1
X_337_ net21 VGND VGND VPWR VPWR _019_ sky130_fd_sc_hd__inv_2