*SPEF "ieee 1481-1999"
*DESIGN "freq_psc"
*DATE "06:28:38 Saturday October 26, 2024"
*VENDOR "The OpenROAD Project"
*PROGRAM "OpenROAD"
*VERSION "edf00dff99f6c40d67a30c0e22a8191c5d2ed9d6"
*DESIGN_FLOW "NAME_SCOPE LOCAL" "PIN_CAP NONE"
*DIVIDER /
*DELIMITER :
*BUS_DELIMITER []
*T_UNIT 1 NS
*C_UNIT 1 PF
*R_UNIT 1 OHM
*L_UNIT 1 HENRY

*NAME_MAP
*3 clk
*4 out
*5 psc[0]
*6 psc[10]
*7 psc[11]
*8 psc[12]
*9 psc[13]
*10 psc[14]
*11 psc[15]
*12 psc[1]
*13 psc[2]
*14 psc[3]
*15 psc[4]
*16 psc[5]
*17 psc[6]
*18 psc[7]
*19 psc[8]
*20 psc[9]
*21 rst
*22 _000_
*23 _001_
*24 _002_
*25 _003_
*26 _004_
*27 _005_
*28 _006_
*29 _007_
*30 _008_
*31 _009_
*32 _010_
*33 _011_
*34 _012_
*35 _013_
*36 _014_
*37 _015_
*38 _016_
*39 _017_
*40 _018_
*41 _019_
*42 _020_
*43 _021_
*44 _022_
*45 _023_
*46 _024_
*47 _025_
*48 _026_
*49 _027_
*50 _028_
*51 _029_
*52 _030_
*53 _031_
*54 _032_
*55 _033_
*56 _034_
*57 _035_
*58 _036_
*59 _037_
*60 _038_
*61 _039_
*62 _040_
*63 _041_
*64 _042_
*65 _043_
*66 _044_
*67 _045_
*68 _046_
*69 _047_
*70 _048_
*71 _049_
*72 _050_
*73 _051_
*74 _052_
*75 _053_
*76 _054_
*77 _055_
*78 _056_
*79 _057_
*80 _058_
*81 _059_
*82 _060_
*83 _061_
*84 _062_
*85 _063_
*86 _064_
*87 _065_
*88 _066_
*89 _067_
*90 _068_
*91 _069_
*92 _070_
*93 _071_
*94 _072_
*95 _073_
*96 _074_
*97 _075_
*98 _076_
*99 _077_
*100 _078_
*101 _079_
*102 _080_
*103 _081_
*104 _082_
*105 _083_
*106 _084_
*107 _085_
*108 _086_
*109 _087_
*110 _088_
*111 _089_
*112 _090_
*113 _091_
*114 _092_
*115 _093_
*116 _094_
*117 _095_
*118 _096_
*119 _097_
*120 _098_
*121 _099_
*122 _100_
*123 _101_
*124 _102_
*125 _103_
*126 _104_
*127 _105_
*128 _106_
*129 _107_
*130 _108_
*131 _109_
*132 _110_
*133 _111_
*134 _112_
*135 clknet_0_clk
*136 clknet_1_0__leaf_clk
*137 clknet_1_1__leaf_clk
*138 net1
*139 net10
*140 net11
*141 net12
*142 net13
*143 net14
*144 net15
*145 net16
*146 net17
*147 net18
*148 net19
*149 net2
*150 net20
*151 net21
*152 net22
*153 net23
*154 net24
*155 net25
*156 net26
*157 net27
*158 net3
*159 net4
*160 net5
*161 net6
*162 net7
*163 net8
*164 net9
*165 psc_cnt\[0\]
*166 psc_cnt\[10\]
*167 psc_cnt\[11\]
*168 psc_cnt\[12\]
*169 psc_cnt\[13\]
*170 psc_cnt\[14\]
*171 psc_cnt\[15\]
*172 psc_cnt\[1\]
*173 psc_cnt\[2\]
*174 psc_cnt\[3\]
*175 psc_cnt\[4\]
*176 psc_cnt\[5\]
*177 psc_cnt\[6\]
*178 psc_cnt\[7\]
*179 psc_cnt\[8\]
*180 psc_cnt\[9\]
*181 FILLER_0_105
*182 FILLER_0_15
*183 FILLER_0_23
*184 FILLER_0_27
*185 FILLER_0_29
*186 FILLER_0_3
*187 FILLER_0_34
*188 FILLER_0_41
*189 FILLER_0_48
*190 FILLER_0_52
*191 FILLER_0_62
*192 FILLER_0_78
*193 FILLER_0_83
*194 FILLER_0_85
*195 FILLER_0_97
*196 FILLER_10_105
*197 FILLER_10_69
*198 FILLER_10_76
*199 FILLER_10_85
*200 FILLER_10_97
*201 FILLER_11_102
*202 FILLER_11_106
*203 FILLER_11_60
*204 FILLER_11_7
*205 FILLER_11_95
*206 FILLER_12_106
*207 FILLER_12_15
*208 FILLER_12_23
*209 FILLER_12_27
*210 FILLER_12_29
*211 FILLER_12_3
*212 FILLER_12_38
*213 FILLER_12_60
*214 FILLER_12_82
*215 FILLER_12_85
*216 FILLER_13_102
*217 FILLER_13_106
*218 FILLER_13_3
*219 FILLER_13_30
*220 FILLER_13_38
*221 FILLER_13_50
*222 FILLER_13_57
*223 FILLER_13_69
*224 FILLER_13_73
*225 FILLER_13_81
*226 FILLER_13_89
*227 FILLER_13_9
*228 FILLER_13_97
*229 FILLER_14_29
*230 FILLER_14_3
*231 FILLER_14_37
*232 FILLER_14_62
*233 FILLER_14_7
*234 FILLER_14_78
*235 FILLER_14_85
*236 FILLER_15_21
*237 FILLER_15_3
*238 FILLER_15_48
*239 FILLER_15_55
*240 FILLER_15_99
*241 FILLER_16_106
*242 FILLER_16_15
*243 FILLER_16_27
*244 FILLER_16_3
*245 FILLER_16_37
*246 FILLER_16_59
*247 FILLER_16_63
*248 FILLER_16_70
*249 FILLER_16_82
*250 FILLER_16_98
*251 FILLER_17_103
*252 FILLER_17_15
*253 FILLER_17_27
*254 FILLER_17_29
*255 FILLER_17_3
*256 FILLER_17_34
*257 FILLER_17_42
*258 FILLER_17_48
*259 FILLER_17_55
*260 FILLER_17_57
*261 FILLER_17_65
*262 FILLER_17_69
*263 FILLER_17_76
*264 FILLER_17_83
*265 FILLER_17_91
*266 FILLER_1_104
*267 FILLER_1_15
*268 FILLER_1_23
*269 FILLER_1_3
*270 FILLER_1_36
*271 FILLER_1_43
*272 FILLER_1_47
*273 FILLER_1_55
*274 FILLER_1_60
*275 FILLER_1_80
*276 FILLER_1_92
*277 FILLER_2_105
*278 FILLER_2_15
*279 FILLER_2_27
*280 FILLER_2_3
*281 FILLER_2_49
*282 FILLER_2_59
*283 FILLER_2_69
*284 FILLER_2_83
*285 FILLER_2_85
*286 FILLER_2_97
*287 FILLER_3_100
*288 FILLER_3_11
*289 FILLER_3_20
*290 FILLER_3_3
*291 FILLER_3_32
*292 FILLER_3_48
*293 FILLER_3_57
*294 FILLER_3_63
*295 FILLER_3_70
*296 FILLER_3_79
*297 FILLER_3_88
*298 FILLER_3_96
*299 FILLER_4_105
*300 FILLER_4_27
*301 FILLER_4_29
*302 FILLER_4_3
*303 FILLER_4_58
*304 FILLER_4_70
*305 FILLER_4_76
*306 FILLER_4_82
*307 FILLER_5_20
*308 FILLER_5_3
*309 FILLER_5_32
*310 FILLER_5_41
*311 FILLER_5_45
*312 FILLER_5_52
*313 FILLER_5_57
*314 FILLER_5_69
*315 FILLER_6_105
*316 FILLER_6_11
*317 FILLER_6_26
*318 FILLER_6_3
*319 FILLER_6_32
*320 FILLER_6_36
*321 FILLER_6_60
*322 FILLER_6_77
*323 FILLER_6_83
*324 FILLER_6_90
*325 FILLER_7_100
*326 FILLER_7_106
*327 FILLER_7_3
*328 FILLER_7_38
*329 FILLER_7_44
*330 FILLER_7_55
*331 FILLER_7_57
*332 FILLER_8_105
*333 FILLER_8_3
*334 FILLER_8_32
*335 FILLER_8_44
*336 FILLER_8_76
*337 FILLER_9_10
*338 FILLER_9_14
*339 FILLER_9_26
*340 FILLER_9_47
*341 FILLER_9_53
*342 FILLER_9_57
*343 FILLER_9_69
*344 FILLER_9_95
*345 PHY_EDGE_ROW_0_Left_18
*346 PHY_EDGE_ROW_0_Right_0
*347 PHY_EDGE_ROW_10_Left_28
*348 PHY_EDGE_ROW_10_Right_10
*349 PHY_EDGE_ROW_11_Left_29
*350 PHY_EDGE_ROW_11_Right_11
*351 PHY_EDGE_ROW_12_Left_30
*352 PHY_EDGE_ROW_12_Right_12
*353 PHY_EDGE_ROW_13_Left_31
*354 PHY_EDGE_ROW_13_Right_13
*355 PHY_EDGE_ROW_14_Left_32
*356 PHY_EDGE_ROW_14_Right_14
*357 PHY_EDGE_ROW_15_Left_33
*358 PHY_EDGE_ROW_15_Right_15
*359 PHY_EDGE_ROW_16_Left_34
*360 PHY_EDGE_ROW_16_Right_16
*361 PHY_EDGE_ROW_17_Left_35
*362 PHY_EDGE_ROW_17_Right_17
*363 PHY_EDGE_ROW_1_Left_19
*364 PHY_EDGE_ROW_1_Right_1
*365 PHY_EDGE_ROW_2_Left_20
*366 PHY_EDGE_ROW_2_Right_2
*367 PHY_EDGE_ROW_3_Left_21
*368 PHY_EDGE_ROW_3_Right_3
*369 PHY_EDGE_ROW_4_Left_22
*370 PHY_EDGE_ROW_4_Right_4
*371 PHY_EDGE_ROW_5_Left_23
*372 PHY_EDGE_ROW_5_Right_5
*373 PHY_EDGE_ROW_6_Left_24
*374 PHY_EDGE_ROW_6_Right_6
*375 PHY_EDGE_ROW_7_Left_25
*376 PHY_EDGE_ROW_7_Right_7
*377 PHY_EDGE_ROW_8_Left_26
*378 PHY_EDGE_ROW_8_Right_8
*379 PHY_EDGE_ROW_9_Left_27
*380 PHY_EDGE_ROW_9_Right_9
*381 TAP_TAPCELL_ROW_0_36
*382 TAP_TAPCELL_ROW_0_37
*383 TAP_TAPCELL_ROW_0_38
*384 TAP_TAPCELL_ROW_10_52
*385 TAP_TAPCELL_ROW_10_53
*386 TAP_TAPCELL_ROW_11_54
*387 TAP_TAPCELL_ROW_12_55
*388 TAP_TAPCELL_ROW_12_56
*389 TAP_TAPCELL_ROW_13_57
*390 TAP_TAPCELL_ROW_14_58
*391 TAP_TAPCELL_ROW_14_59
*392 TAP_TAPCELL_ROW_15_60
*393 TAP_TAPCELL_ROW_16_61
*394 TAP_TAPCELL_ROW_16_62
*395 TAP_TAPCELL_ROW_17_63
*396 TAP_TAPCELL_ROW_17_64
*397 TAP_TAPCELL_ROW_17_65
*398 TAP_TAPCELL_ROW_1_39
*399 TAP_TAPCELL_ROW_2_40
*400 TAP_TAPCELL_ROW_2_41
*401 TAP_TAPCELL_ROW_3_42
*402 TAP_TAPCELL_ROW_4_43
*403 TAP_TAPCELL_ROW_4_44
*404 TAP_TAPCELL_ROW_5_45
*405 TAP_TAPCELL_ROW_6_46
*406 TAP_TAPCELL_ROW_6_47
*407 TAP_TAPCELL_ROW_7_48
*408 TAP_TAPCELL_ROW_8_49
*409 TAP_TAPCELL_ROW_8_50
*410 TAP_TAPCELL_ROW_9_51
*411 _113_
*412 _114_
*413 _115_
*414 _116_
*415 _117_
*416 _118_
*417 _119_
*418 _120_
*419 _121_
*420 _122_
*421 _123_
*422 _124_
*423 _125_
*424 _126_
*425 _127_
*426 _128_
*427 _129_
*428 _130_
*429 _131_
*430 _132_
*431 _133_
*432 _134_
*433 _135_
*434 _136_
*435 _137_
*436 _138_
*437 _139_
*438 _140_
*439 _141_
*440 _142_
*441 _143_
*442 _144_
*443 _145_
*444 _146_
*445 _147_
*446 _148_
*447 _149_
*448 _150_
*449 _151_
*450 _152_
*451 _153_
*452 _154_
*453 _155_
*454 _156_
*455 _157_
*456 _158_
*457 _159_
*458 _160_
*459 _161_
*460 _162_
*461 _163_
*462 _164_
*463 _165_
*464 _166_
*465 _167_
*466 _168_
*467 _169_
*468 _170_
*469 _171_
*470 _172_
*471 _173_
*472 _174_
*473 _175_
*474 _176_
*475 _177_
*476 _178_
*477 _179_
*478 _180_
*479 _181_
*480 _182_
*481 _183_
*482 _184_
*483 _185_
*484 _186_
*485 _187_
*486 _188_
*487 _189_
*488 _190_
*489 _191_
*490 _192_
*491 _193_
*492 _194_
*493 _195_
*494 _196_
*495 _197_
*496 _198_
*497 _199_
*498 _200_
*499 _201_
*500 _202_
*501 _203_
*502 _204_
*503 _205_
*504 _206_
*505 _207_
*506 _208_
*507 _209_
*508 _210_
*509 _211_
*510 _212_
*511 _213_
*512 _214_
*513 _215_
*514 _216_
*515 _217_
*516 _218_
*517 _219_
*518 _220_
*519 _221_
*520 _222_
*521 _223_
*522 _224_
*523 _225_
*524 _226_
*525 _227_
*526 _228_
*527 _229_
*528 _230_
*529 _231_
*530 _232_
*531 _233_
*532 _234_
*533 _235_
*534 _236_
*535 _237_
*536 _238_
*537 _239_
*538 _240_
*539 _241_
*540 _242_
*541 clkbuf_0_clk
*542 clkbuf_1_0__f_clk
*543 clkbuf_1_1__f_clk
*544 clkload0
*545 clone1
*546 fanout19
*547 fanout20
*548 fanout21
*549 fanout22
*550 hold4
*551 hold5
*552 input1
*553 input10
*554 input11
*555 input12
*556 input13
*557 input14
*558 input15
*559 input16
*560 input17
*561 input2
*562 input3
*563 input4
*564 input5
*565 input6
*566 input7
*567 input8
*568 input9
*569 output18
*570 rebuffer2
*571 rebuffer3

*PORTS
clk I
out O
psc[0] I
psc[10] I
psc[11] I
psc[12] I
psc[13] I
psc[14] I
psc[15] I
psc[1] I
psc[2] I
psc[3] I
psc[4] I
psc[5] I
psc[6] I
psc[7] I
psc[8] I
psc[9] I
rst I

*D_NET *3 0.0051267
*CONN
*P clk I
*I *541:A I *D sky130_fd_sc_hd__clkbuf_16
*CAP
1 clk 0.00216298
2 *541:A 0.00216298
3 *541:A *427:B 0
4 *541:A *429:B1_N 1.90936e-05
5 *541:A *500:B 0.000188967
6 *541:A *511:A 0
7 *541:A *528:RESET_B 0
8 *541:A *536:D 0.000395443
9 *541:A *537:RESET_B 0
10 *541:A *545:A 0.000111213
11 *541:A *120:10 2.95734e-05
12 *541:A *148:14 5.64539e-05
13 *541:A *148:22 0
*RES
1 clk *541:A 33.6681 
*END

*D_NET *4 0.00110427
*CONN
*P out O
*I *569:X O *D sky130_fd_sc_hd__buf_2
*CAP
1 out 0.000359263
2 *569:X 0.000359263
3 out *540:D 9.05964e-05
4 out *136:12 0.000179656
5 out *136:16 0.00011549
*RES
1 *569:X out 21.5342 
*END

*D_NET *5 0.00084331
*CONN
*P psc[0] I
*I *552:A I *D sky130_fd_sc_hd__clkbuf_1
*CAP
1 psc[0] 0.000421655
2 *552:A 0.000421655
3 *552:A *567:A 0
*RES
1 psc[0] *552:A 21.8357 
*END

*D_NET *6 0.00113202
*CONN
*P psc[10] I
*I *561:A I *D sky130_fd_sc_hd__clkbuf_1
*CAP
1 psc[10] 0.000503927
2 *561:A 0.000503927
3 *561:A *434:A_N 1.56e-05
4 *561:A *438:A 5.52238e-05
5 *561:A *438:B 5.33433e-05
6 *561:A *562:A 0
*RES
1 psc[10] *561:A 24.0679 
*END

*D_NET *7 0.00140463
*CONN
*P psc[11] I
*I *562:A I *D sky130_fd_sc_hd__clkbuf_1
*CAP
1 psc[11] 0.000537052
2 *562:A 0.000537052
3 *562:A *438:A 0.000144773
4 *562:A *438:B 0.000126639
5 *562:A *438:C 1.02504e-05
6 *562:A *439:B2 4.88637e-05
7 *562:A *558:A 0
8 *561:A *562:A 0
*RES
1 psc[11] *562:A 25.9607 
*END

*D_NET *8 0.00100054
*CONN
*P psc[12] I
*I *563:A I *D sky130_fd_sc_hd__clkbuf_1
*CAP
1 psc[12] 0.000500272
2 *563:A 0.000500272
3 *563:A *564:A 0
4 *563:A *565:A 0
*RES
1 psc[12] *563:A 23.7821 
*END

*D_NET *9 0.00102423
*CONN
*P psc[13] I
*I *564:A I *D sky130_fd_sc_hd__clkbuf_1
*CAP
1 psc[13] 0.00049618
2 *564:A 0.00049618
3 *564:A *159:10 3.18676e-05
4 *563:A *564:A 0
*RES
1 psc[13] *564:A 23.6571 
*END

*D_NET *10 0.0012391
*CONN
*P psc[14] I
*I *565:A I *D sky130_fd_sc_hd__clkbuf_1
*CAP
1 psc[14] 0.000569072
2 *565:A 0.000569072
3 *565:A *412:A 6.29133e-05
4 *565:A *566:A 0
5 *565:A *106:10 2.3426e-05
6 *565:A *162:10 1.46148e-05
7 *563:A *565:A 0
*RES
1 psc[14] *565:A 25.0143 
*END

*D_NET *11 0.00101576
*CONN
*P psc[15] I
*I *566:A I *D sky130_fd_sc_hd__clkbuf_1
*CAP
1 psc[15] 0.000507882
2 *566:A 0.000507882
3 *565:A *566:A 0
*RES
1 psc[15] *566:A 23.6571 
*END

*D_NET *12 0.00084331
*CONN
*P psc[1] I
*I *567:A I *D sky130_fd_sc_hd__clkbuf_1
*CAP
1 psc[1] 0.000421655
2 *567:A 0.000421655
3 *567:A *568:A 0
4 *552:A *567:A 0
*RES
1 psc[1] *567:A 21.8357 
*END

*D_NET *13 0.000974839
*CONN
*P psc[2] I
*I *568:A I *D sky130_fd_sc_hd__clkbuf_1
*CAP
1 psc[2] 0.000448782
2 *568:A 0.000448782
3 *568:A *422:A 7.72745e-05
4 *568:A *553:A 0
5 *567:A *568:A 0
*RES
1 psc[2] *568:A 22.6571 
*END

*D_NET *14 0.000950711
*CONN
*P psc[3] I
*I *553:A I *D sky130_fd_sc_hd__clkbuf_1
*CAP
1 psc[3] 0.00047351
2 *553:A 0.00047351
3 *553:A *420:A 3.69047e-06
4 *568:A *553:A 0
*RES
1 psc[3] *553:A 22.9071 
*END

*D_NET *15 0.00116836
*CONN
*P psc[4] I
*I *554:A I *D sky130_fd_sc_hd__clkbuf_1
*CAP
1 psc[4] 0.000578192
2 *554:A 0.000578192
3 *554:A *555:A 0
4 *554:A *140:8 1.1979e-05
*RES
1 psc[4] *554:A 23.6036 
*END

*D_NET *16 0.00131939
*CONN
*P psc[5] I
*I *555:A I *D sky130_fd_sc_hd__clkbuf_1
*CAP
1 psc[5] 0.000600105
2 *555:A 0.000600105
3 *555:A *453:A2 3.93247e-05
4 *555:A *454:D 1.32552e-05
5 *555:A *455:B2 4.72917e-05
6 *555:A *556:A 0
7 *555:A *63:6 6.05161e-06
8 *555:A *142:8 1.32552e-05
9 *554:A *555:A 0
*RES
1 psc[5] *555:A 24.675 
*END

*D_NET *17 0.00118628
*CONN
*P psc[6] I
*I *556:A I *D sky130_fd_sc_hd__buf_1
*CAP
1 psc[6] 0.000529702
2 *556:A 0.000529702
3 *556:A *453:A1 5.80706e-06
4 *556:A *453:A2 5.71472e-05
5 *556:A *557:A 0
6 *556:A *141:12 4.99461e-05
7 *556:A *142:8 1.39726e-05
8 *555:A *556:A 0
*RES
1 psc[6] *556:A 23.6036 
*END

*D_NET *18 0.00084784
*CONN
*P psc[7] I
*I *557:A I *D sky130_fd_sc_hd__clkbuf_1
*CAP
1 psc[7] 0.00042392
2 *557:A 0.00042392
3 *557:A *141:12 0
4 *556:A *557:A 0
*RES
1 psc[7] *557:A 21.8357 
*END

*D_NET *19 0.00102063
*CONN
*P psc[8] I
*I *558:A I *D sky130_fd_sc_hd__clkbuf_1
*CAP
1 psc[8] 0.000496714
2 *558:A 0.000496714
3 *558:A *438:D 4.46186e-06
4 *558:A *559:A 0
5 *558:A *131:14 2.27416e-05
6 *562:A *558:A 0
*RES
1 psc[8] *558:A 23.6571 
*END

*D_NET *20 0.00101576
*CONN
*P psc[9] I
*I *559:A I *D sky130_fd_sc_hd__clkbuf_1
*CAP
1 psc[9] 0.000507882
2 *559:A 0.000507882
3 *558:A *559:A 0
*RES
1 psc[9] *559:A 23.6571 
*END

*D_NET *21 0.000778723
*CONN
*P rst I
*I *560:A I *D sky130_fd_sc_hd__buf_1
*CAP
1 rst 0.000389362
2 *560:A 0.000389362
3 *560:A *513:A 0
4 *560:A *146:10 0
*RES
1 rst *560:A 21.1586 
*END

*D_NET *22 0.000269098
*CONN
*I *524:D I *D sky130_fd_sc_hd__dfrtp_2
*I *463:X O *D sky130_fd_sc_hd__and2b_1
*CAP
1 *524:D 0.000118615
2 *463:X 0.000118615
3 *524:D *525:CLK 3.18676e-05
4 *524:D *136:20 0
5 *524:D *165:10 0
*RES
1 *463:X *524:D 29.475 
*END

*D_NET *23 0.000512847
*CONN
*I *534:D I *D sky130_fd_sc_hd__dfrtp_1
*I *494:X O *D sky130_fd_sc_hd__and2_1
*CAP
1 *534:D 0.000158593
2 *494:X 0.000158593
3 *534:D *494:B 6.75007e-05
4 *534:D *166:27 0.000128161
*RES
1 *494:X *534:D 31.0107 
*END

*D_NET *24 0.000532722
*CONN
*I *535:D I *D sky130_fd_sc_hd__dfrtp_1
*I *497:X O *D sky130_fd_sc_hd__and3b_1
*CAP
1 *535:D 0.00016816
2 *497:X 0.00016816
3 *535:D *479:B 3.34366e-05
4 *535:D *497:C 3.14163e-05
5 *535:D *542:A 0
6 *535:D *75:18 1.19309e-05
7 *535:D *150:10 4.97876e-05
8 *535:D *150:12 6.98302e-05
9 *535:D *168:8 0
*RES
1 *497:X *535:D 30.9036 
*END

*D_NET *25 0.00106644
*CONN
*I *536:D I *D sky130_fd_sc_hd__dfrtp_1
*I *500:X O *D sky130_fd_sc_hd__and3_1
*CAP
1 *536:D 0.000308025
2 *500:X 0.000308025
3 *536:D *506:A 5.49489e-05
4 *541:A *536:D 0.000395443
*RES
1 *500:X *536:D 33.4214 
*END

*D_NET *26 0.000738579
*CONN
*I *537:D I *D sky130_fd_sc_hd__dfrtp_1
*I *503:X O *D sky130_fd_sc_hd__and2_1
*CAP
1 *537:D 0.000180274
2 *503:X 0.000180274
3 *537:D *523:A 5.52238e-05
4 *537:D *536:CLK 6.71755e-05
5 *537:D *136:75 2.59355e-05
6 *537:D *151:68 5.80652e-05
7 *537:D *153:10 1.92905e-05
8 *537:D *153:49 0.00015234
*RES
1 *503:X *537:D 31.85 
*END

*D_NET *27 0.000567556
*CONN
*I *538:D I *D sky130_fd_sc_hd__dfrtp_1
*I *506:X O *D sky130_fd_sc_hd__and3_1
*CAP
1 *538:D 0.000185956
2 *506:X 0.000185956
3 *538:D *507:A2 6.74911e-05
4 *538:D *507:B1_N 0.000128154
*RES
1 *506:X *538:D 31.4214 
*END

*D_NET *28 0.000677989
*CONN
*I *539:D I *D sky130_fd_sc_hd__dfrtp_1
*I *507:Y O *D sky130_fd_sc_hd__a21boi_1
*CAP
1 *539:D 0.000312328
2 *507:Y 0.000312328
3 *539:D *507:B1_N 5.33334e-05
*RES
1 *507:Y *539:D 31.8321 
*END

*D_NET *29 0.00030324
*CONN
*I *525:D I *D sky130_fd_sc_hd__dfrtp_2
*I *466:X O *D sky130_fd_sc_hd__and3_1
*CAP
1 *525:D 0.000103904
2 *466:X 0.000103904
3 *525:D *463:B 2.89016e-05
4 *525:D *153:49 0
5 *525:D *165:12 6.65302e-05
*RES
1 *466:X *525:D 29.7786 
*END

*D_NET *30 0.000579506
*CONN
*I *526:D I *D sky130_fd_sc_hd__dfrtp_1
*I *469:X O *D sky130_fd_sc_hd__and3_1
*CAP
1 *526:D 0.000266876
2 *469:X 0.000266876
3 *526:D *469:B 0
4 *526:D *136:24 4.57538e-05
*RES
1 *469:X *526:D 31.6179 
*END

*D_NET *31 0.000641783
*CONN
*I *527:D I *D sky130_fd_sc_hd__dfrtp_1
*I *472:X O *D sky130_fd_sc_hd__and3b_1
*CAP
1 *527:D 0.000165992
2 *472:X 0.000165992
3 *527:D *443:C1 0
4 *527:D *470:A3 5.33005e-05
5 *527:D *472:B 5.52238e-05
6 *527:D *528:CLK 7.43578e-06
7 *527:D *165:29 0
8 *527:D *172:62 0.000137939
9 *527:D *172:72 5.59013e-05
*RES
1 *472:X *527:D 31.225 
*END

*D_NET *32 0.000925693
*CONN
*I *528:D I *D sky130_fd_sc_hd__dfrtp_1
*I *475:X O *D sky130_fd_sc_hd__and3_1
*CAP
1 *528:D 0.000305637
2 *475:X 0.000305637
3 *528:D *463:B 6.94952e-05
4 *528:D *473:B 6.63763e-05
5 *528:D *475:B 5.71472e-05
6 *528:D *81:52 5.71124e-05
7 *528:D *148:28 6.42877e-05
*RES
1 *475:X *528:D 32.2429 
*END

*D_NET *33 0.000856233
*CONN
*I *529:D I *D sky130_fd_sc_hd__dfrtp_1
*I *479:X O *D sky130_fd_sc_hd__and3b_1
*CAP
1 *529:D 0.000386935
2 *479:X 0.000386935
3 *529:D *529:CLK 3.99614e-06
4 *529:D *71:10 7.83659e-05
*RES
1 *479:X *529:D 32.475 
*END

*D_NET *34 0.000607122
*CONN
*I *530:D I *D sky130_fd_sc_hd__dfrtp_1
*I *482:X O *D sky130_fd_sc_hd__and3_1
*CAP
1 *530:D 0.000234267
2 *482:X 0.000234267
3 *530:D *486:B 4.83653e-05
4 *530:D *530:CLK 0
5 *530:D *531:RESET_B 0
6 *530:D *177:6 2.27416e-05
7 *530:D *178:21 6.74815e-05
*RES
1 *482:X *530:D 32.2071 
*END

*D_NET *35 0.000379026
*CONN
*I *531:D I *D sky130_fd_sc_hd__dfrtp_1
*I *486:X O *D sky130_fd_sc_hd__and3b_1
*CAP
1 *531:D 7.00564e-05
2 *486:X 7.00564e-05
3 *531:D *484:A 6.34386e-05
4 *531:D *531:CLK 5.52302e-05
5 *531:D *548:A 4.70078e-05
6 *531:D *178:6 7.3237e-05
*RES
1 *486:X *531:D 20.7964 
*END

*D_NET *36 0.000543664
*CONN
*I *532:D I *D sky130_fd_sc_hd__dfrtp_1
*I *489:X O *D sky130_fd_sc_hd__and3b_1
*CAP
1 *532:D 0.000141244
2 *489:X 0.000141244
3 *532:D *487:B 2.28499e-05
4 *532:D *489:C 9.71197e-05
5 *532:D *137:18 3.79467e-05
6 *532:D *150:74 0.00010326
*RES
1 *489:X *532:D 30.2964 
*END

*D_NET *37 0.000371128
*CONN
*I *533:D I *D sky130_fd_sc_hd__dfrtp_1
*I *492:X O *D sky130_fd_sc_hd__and3b_1
*CAP
1 *533:D 6.11755e-05
2 *492:X 6.11755e-05
3 *533:D *490:B 1.02504e-05
4 *533:D *491:A 4.43046e-05
5 *533:D *492:C 7.6644e-05
6 *533:D *493:B 3.34366e-05
7 *533:D *94:14 5.52302e-05
8 *533:D *180:31 2.89114e-05
*RES
1 *492:X *533:D 29.475 
*END

*D_NET *38 0.000525052
*CONN
*I *524:RESET_B I *D sky130_fd_sc_hd__dfrtp_2
*I *424:Y O *D sky130_fd_sc_hd__inv_2
*CAP
1 *524:RESET_B 0.000145423
2 *424:Y 0.000145423
3 *524:RESET_B *424:A 9.90431e-05
4 *524:RESET_B *165:10 0.000135163
*RES
1 *424:Y *524:RESET_B 12.2375 
*END

*D_NET *39 0.000394993
*CONN
*I *525:RESET_B I *D sky130_fd_sc_hd__dfrtp_2
*I *508:Y O *D sky130_fd_sc_hd__inv_2
*CAP
1 *525:RESET_B 0.000145431
2 *508:Y 0.000145431
3 *525:RESET_B *475:C 0
4 *525:RESET_B *508:A 2.27416e-05
5 *525:RESET_B *151:36 8.13897e-05
*RES
1 *508:Y *525:RESET_B 21.0857 
*END

*D_NET *40 0.000323227
*CONN
*I *526:RESET_B I *D sky130_fd_sc_hd__dfrtp_1
*I *509:Y O *D sky130_fd_sc_hd__inv_2
*CAP
1 *526:RESET_B 9.86751e-05
2 *509:Y 9.86751e-05
3 *526:RESET_B *136:31 0.000125877
*RES
1 *509:Y *526:RESET_B 11.4161 
*END

*D_NET *41 0.000399271
*CONN
*I *527:RESET_B I *D sky130_fd_sc_hd__dfrtp_1
*I *510:Y O *D sky130_fd_sc_hd__inv_2
*CAP
1 *527:RESET_B 6.28972e-05
2 *510:Y 6.28972e-05
3 *527:RESET_B *510:A 0.000125877
4 *527:RESET_B *174:6 5.52302e-05
5 *527:RESET_B *174:10 9.23695e-05
*RES
1 *510:Y *527:RESET_B 11.4161 
*END

*D_NET *42 0.000880763
*CONN
*I *528:RESET_B I *D sky130_fd_sc_hd__dfrtp_1
*I *511:Y O *D sky130_fd_sc_hd__inv_2
*CAP
1 *528:RESET_B 0.000378677
2 *511:Y 0.000378677
3 *528:RESET_B *472:B 0
4 *528:RESET_B *473:A 0
5 *528:RESET_B *148:22 0.000106853
6 *528:RESET_B *148:28 1.65558e-05
7 *541:A *528:RESET_B 0
*RES
1 *511:Y *528:RESET_B 25.4071 
*END

*D_NET *43 0.000638706
*CONN
*I *529:RESET_B I *D sky130_fd_sc_hd__dfrtp_1
*I *512:Y O *D sky130_fd_sc_hd__inv_2
*CAP
1 *529:RESET_B 0.000235884
2 *512:Y 0.000235884
3 *529:RESET_B *479:A_N 3.25247e-05
4 *529:RESET_B *479:C 0.000102545
5 *529:RESET_B *518:A 3.18676e-05
*RES
1 *512:Y *529:RESET_B 21.8179 
*END

*D_NET *44 0.000357418
*CONN
*I *530:RESET_B I *D sky130_fd_sc_hd__dfrtp_1
*I *513:Y O *D sky130_fd_sc_hd__inv_2
*CAP
1 *530:RESET_B 0.000178709
2 *513:Y 0.000178709
3 *530:RESET_B *446:A_N 0
4 *530:RESET_B *513:A 0
5 *530:RESET_B *178:21 0
*RES
1 *513:Y *530:RESET_B 21.1929 
*END

*D_NET *45 0.000173041
*CONN
*I *531:RESET_B I *D sky130_fd_sc_hd__dfrtp_1
*I *514:Y O *D sky130_fd_sc_hd__inv_2
*CAP
1 *531:RESET_B 6.91338e-05
2 *514:Y 6.91338e-05
3 *531:RESET_B *513:A 3.47737e-05
4 *530:D *531:RESET_B 0
*RES
1 *514:Y *531:RESET_B 19.6393 
*END

*D_NET *46 0.000324954
*CONN
*I *532:RESET_B I *D sky130_fd_sc_hd__dfrtp_1
*I *515:Y O *D sky130_fd_sc_hd__inv_2
*CAP
1 *532:RESET_B 0.000108344
2 *515:Y 0.000108344
3 *532:RESET_B *515:A 7.43578e-06
4 *532:RESET_B *150:74 0
5 *532:RESET_B *152:43 0.000100831
*RES
1 *515:Y *532:RESET_B 20.175 
*END

*D_NET *47 0.000221827
*CONN
*I *533:RESET_B I *D sky130_fd_sc_hd__dfrtp_1
*I *516:Y O *D sky130_fd_sc_hd__inv_2
*CAP
1 *533:RESET_B 5.96411e-05
2 *516:Y 5.96411e-05
3 *533:RESET_B *517:A 0.000102545
*RES
1 *516:Y *533:RESET_B 19.6393 
*END

*D_NET *48 0.000264932
*CONN
*I *534:RESET_B I *D sky130_fd_sc_hd__dfrtp_1
*I *517:Y O *D sky130_fd_sc_hd__inv_2
*CAP
1 *534:RESET_B 0.000132466
2 *517:Y 0.000132466
3 *534:RESET_B *494:A 0
*RES
1 *517:Y *534:RESET_B 20.4786 
*END

*D_NET *49 0.00042327
*CONN
*I *535:RESET_B I *D sky130_fd_sc_hd__dfrtp_1
*I *518:Y O *D sky130_fd_sc_hd__inv_2
*CAP
1 *535:RESET_B 0.000102118
2 *518:Y 0.000102118
3 *535:RESET_B *416:A 3.18676e-05
4 *535:RESET_B *497:C 9.24299e-05
5 *535:RESET_B *110:8 9.4736e-05
*RES
1 *518:Y *535:RESET_B 21.0857 
*END

*D_NET *50 0.000402068
*CONN
*I *536:RESET_B I *D sky130_fd_sc_hd__dfrtp_1
*I *519:Y O *D sky130_fd_sc_hd__inv_2
*CAP
1 *536:RESET_B 9.35057e-05
2 *519:Y 9.35057e-05
3 *536:RESET_B *497:A_N 5.33786e-05
4 *536:RESET_B *498:A 5.52302e-05
5 *536:RESET_B *502:A1 7.71225e-05
6 *536:RESET_B *519:A 9.25014e-06
7 *536:RESET_B *542:A 2.00751e-05
*RES
1 *519:Y *536:RESET_B 20.7821 
*END

*D_NET *51 0.000785267
*CONN
*I *537:RESET_B I *D sky130_fd_sc_hd__dfrtp_1
*I *520:Y O *D sky130_fd_sc_hd__inv_2
*CAP
1 *537:RESET_B 0.000284036
2 *520:Y 0.000284036
3 *537:RESET_B *502:B1 0.000171375
4 *537:RESET_B *151:68 0
5 *537:RESET_B *151:84 4.58194e-05
6 *541:A *537:RESET_B 0
*RES
1 *520:Y *537:RESET_B 23.3179 
*END

*D_NET *52 0.00128385
*CONN
*I *538:RESET_B I *D sky130_fd_sc_hd__dfrtp_1
*I *521:Y O *D sky130_fd_sc_hd__inv_2
*CAP
1 *538:RESET_B 0.000349775
2 *521:Y 0.000349775
3 *538:RESET_B *427:A_N 9.3111e-05
4 *538:RESET_B *505:A 0.000125724
5 *538:RESET_B *151:76 0.000186765
6 *538:RESET_B *170:6 5.33005e-05
7 *538:RESET_B *170:31 0.0001254
*RES
1 *521:Y *538:RESET_B 25.0768 
*END

*D_NET *53 0.00071805
*CONN
*I *539:RESET_B I *D sky130_fd_sc_hd__dfrtp_1
*I *522:Y O *D sky130_fd_sc_hd__inv_2
*CAP
1 *539:RESET_B 0.000255436
2 *522:Y 0.000255436
3 *539:RESET_B *427:B 0
4 *539:RESET_B *522:A 0.000177948
5 *539:RESET_B *170:31 1.19402e-05
6 *539:RESET_B *171:12 1.72894e-05
*RES
1 *522:Y *539:RESET_B 23.0768 
*END

*D_NET *54 0.000579101
*CONN
*I *540:RESET_B I *D sky130_fd_sc_hd__dfrtp_1
*I *523:Y O *D sky130_fd_sc_hd__inv_2
*CAP
1 *540:RESET_B 0.00015204
2 *523:Y 0.00015204
3 *540:RESET_B *550:A 5.33882e-05
4 *540:RESET_B *153:16 2.14658e-05
5 *540:RESET_B *153:20 9.69072e-05
6 *540:RESET_B *153:49 0.00010326
*RES
1 *523:Y *540:RESET_B 21.7554 
*END

*D_NET *55 0.000641299
*CONN
*I *540:D I *D sky130_fd_sc_hd__dfrtp_1
*I *462:Y O *D sky130_fd_sc_hd__xnor2_1
*CAP
1 *540:D 0.000215301
2 *462:Y 0.000215301
3 *540:D *136:16 1.30241e-05
4 *540:D *136:18 7.02772e-05
5 *540:D *136:75 3.67989e-05
6 out *540:D 9.05964e-05
*RES
1 *462:Y *540:D 31.6357 
*END

*D_NET *56 0.000379587
*CONN
*I *445:B1 I *D sky130_fd_sc_hd__a21o_1
*I *442:X O *D sky130_fd_sc_hd__a22o_1
*CAP
1 *445:B1 0.000134095
2 *442:X 0.000134095
3 *445:B1 *445:A1 5.48009e-05
4 *445:B1 *445:A2 5.65955e-05
*RES
1 *442:X *445:B1 21.225 
*END

*D_NET *57 0.00123103
*CONN
*I *445:A1 I *D sky130_fd_sc_hd__a21o_1
*I *443:X O *D sky130_fd_sc_hd__a211o_1
*CAP
1 *445:A1 0.0004225
2 *443:X 0.0004225
3 *445:A1 *442:A1 5.51021e-05
4 *445:A1 *447:B1 7.20217e-06
5 *445:A1 *116:6 0.000268929
6 *445:B1 *445:A1 5.48009e-05
*RES
1 *443:X *445:A1 33.4036 
*END

*D_NET *58 0.000637897
*CONN
*I *445:A2 I *D sky130_fd_sc_hd__a21o_1
*I *444:X O *D sky130_fd_sc_hd__o22a_1
*CAP
1 *445:A2 0.000146293
2 *444:X 0.000146293
3 *445:A2 *442:A2 5.49489e-05
4 *445:A2 *442:B1 2.89114e-05
5 *445:A2 *442:B2 5.65955e-05
6 *445:A2 *444:A1 2.12005e-05
7 *445:A2 *172:72 0.00012706
8 *445:B1 *445:A2 5.65955e-05
*RES
1 *444:X *445:A2 22.5643 
*END

*D_NET *59 0.00117467
*CONN
*I *457:A1 I *D sky130_fd_sc_hd__a21oi_1
*I *445:X O *D sky130_fd_sc_hd__a21o_1
*CAP
1 *457:A1 0.000318689
2 *445:X 0.000318689
3 *457:A1 *447:B2 0
4 *457:A1 *447:C1 0.000496405
5 *457:A1 *457:B1 0
6 *457:A1 *472:B 2.84494e-05
7 *457:A1 *174:18 1.24368e-05
*RES
1 *445:X *457:A1 34.725 
*END

*D_NET *60 0.00274189
*CONN
*I *456:B1_N I *D sky130_fd_sc_hd__a21boi_1
*I *447:C1 I *D sky130_fd_sc_hd__o221a_1
*I *446:Y O *D sky130_fd_sc_hd__nand2b_1
*CAP
1 *456:B1_N 0
2 *447:C1 0.000380469
3 *446:Y 0.000367966
4 *60:14 0.000748435
5 *447:C1 *447:B1 5.80706e-06
6 *447:C1 *447:B2 5.5782e-05
7 *447:C1 *457:B1 3.48705e-05
8 *447:C1 *71:10 0.00010096
9 *447:C1 *175:23 0
10 *60:14 *451:A1 3.18676e-05
11 *60:14 *451:A2 0.00010096
12 *60:14 *451:B1 7.48091e-05
13 *60:14 *456:A1 6.5185e-05
14 *60:14 *456:A2 0.000105593
15 *60:14 *457:B1 5.17614e-05
16 *60:14 *65:6 5.52302e-05
17 *60:14 *71:10 6.57914e-05
18 *60:14 *176:38 0
19 *457:A1 *447:C1 0.000496405
*RES
1 *446:Y *60:14 26.2464 
2 *60:14 *447:C1 26.8536 
3 *60:14 *456:B1_N 9.3 
*END

*D_NET *61 0.000715857
*CONN
*I *454:A I *D sky130_fd_sc_hd__and4_1
*I *447:X O *D sky130_fd_sc_hd__o221a_1
*CAP
1 *454:A 0.00023987
2 *447:X 0.00023987
3 *454:A *447:A1 5.52238e-05
4 *454:A *454:C 0.000142856
5 *454:A *457:A2 3.80385e-05
*RES
1 *447:X *454:A 22.8321 
*END

*D_NET *62 0.00103672
*CONN
*I *455:B1 I *D sky130_fd_sc_hd__a221o_1
*I *450:A I *D sky130_fd_sc_hd__and2_1
*I *448:Y O *D sky130_fd_sc_hd__nand2b_1
*CAP
1 *455:B1 0.000137762
2 *450:A 6.82113e-05
3 *448:Y 0
4 *62:6 0.000205973
5 *450:A *449:B 0
6 *450:A *454:D 0.000104974
7 *450:A *455:B2 0
8 *455:B1 *448:A_N 1.15172e-05
9 *455:B1 *448:B 0.00014895
10 *455:B1 *449:B 0
11 *455:B1 *452:A_N 0.000172309
12 *455:B1 *454:D 0.000105682
13 *455:B1 *455:B2 1.28809e-05
14 *455:B1 *455:C1 3.95516e-05
15 *455:B1 *66:8 2.89114e-05
*RES
1 *448:Y *62:6 13.8 
2 *62:6 *450:A 15.4429 
3 *62:6 *455:B1 17.7286 
*END

*D_NET *63 0.000943912
*CONN
*I *455:B2 I *D sky130_fd_sc_hd__a221o_1
*I *450:B I *D sky130_fd_sc_hd__and2_1
*I *449:Y O *D sky130_fd_sc_hd__nand2b_1
*CAP
1 *455:B2 0.000116521
2 *450:B 0
3 *449:Y 9.49283e-05
4 *63:6 0.000211449
5 *455:B2 *449:B 0
6 *455:B2 *453:B1 0.00019384
7 *455:B2 *454:B 0.000148196
8 *455:B2 *454:D 6.11405e-05
9 *455:B2 *455:C1 1.28809e-05
10 *455:B2 *142:19 6.8646e-06
11 *63:6 *454:D 3.18676e-05
12 *450:A *455:B2 0
13 *455:B1 *455:B2 1.28809e-05
14 *555:A *455:B2 4.72917e-05
15 *555:A *63:6 6.05161e-06
*RES
1 *449:Y *63:6 11.0679 
2 *63:6 *450:B 9.3 
3 *63:6 *455:B2 22.233 
*END

*D_NET *64 0.000805723
*CONN
*I *454:B I *D sky130_fd_sc_hd__and4_1
*I *450:X O *D sky130_fd_sc_hd__and2_1
*CAP
1 *454:B 0.000212566
2 *450:X 0.000212566
3 *454:B *451:B1 0
4 *454:B *454:D 0.000154028
5 *454:B *176:38 7.83659e-05
6 *455:B2 *454:B 0.000148196
*RES
1 *450:X *454:B 31.6 
*END

*D_NET *65 0.000938072
*CONN
*I *456:A1 I *D sky130_fd_sc_hd__a21boi_1
*I *454:C I *D sky130_fd_sc_hd__and4_1
*I *451:X O *D sky130_fd_sc_hd__o22a_1
*CAP
1 *456:A1 7.18586e-05
2 *454:C 0.000103373
3 *451:X 0.000110351
4 *65:6 0.000285583
5 *456:A1 *456:A2 0
6 *456:A1 *71:10 8.08022e-05
7 *456:A1 *176:38 2.28335e-05
8 *454:A *454:C 0.000142856
9 *60:14 *456:A1 6.5185e-05
10 *60:14 *65:6 5.52302e-05
*RES
1 *451:X *65:6 10.6571 
2 *65:6 *454:C 11.6929 
3 *65:6 *456:A1 20.2464 
*END

*D_NET *66 0.00119805
*CONN
*I *453:B1 I *D sky130_fd_sc_hd__a21oi_1
*I *455:C1 I *D sky130_fd_sc_hd__a221o_1
*I *452:X O *D sky130_fd_sc_hd__and2b_1
*CAP
1 *453:B1 7.49999e-05
2 *455:C1 5.55945e-05
3 *452:X 8.43259e-05
4 *66:8 0.00021492
5 *453:B1 *453:A1 4.48583e-05
6 *453:B1 *142:19 5.84171e-05
7 *455:C1 *448:A_N 8.1556e-05
8 *66:8 *448:A_N 0.000137515
9 *66:8 *452:A_N 4.39737e-05
10 *66:8 *452:B 5.7661e-06
11 *66:8 *455:A2 0.000120943
12 *455:B1 *455:C1 3.95516e-05
13 *455:B1 *66:8 2.89114e-05
14 *455:B2 *453:B1 0.00019384
15 *455:B2 *455:C1 1.28809e-05
*RES
1 *452:X *66:8 12.3179 
2 *66:8 *455:C1 10.675 
3 *66:8 *453:B1 20.8536 
*END

*D_NET *67 0.00096723
*CONN
*I *454:D I *D sky130_fd_sc_hd__and4_1
*I *453:Y O *D sky130_fd_sc_hd__a21oi_1
*CAP
1 *454:D 0.000208959
2 *453:Y 0.000208959
3 *454:D *449:B 0
4 *454:D *176:38 7.83659e-05
5 *450:A *454:D 0.000104974
6 *454:B *454:D 0.000154028
7 *455:B1 *454:D 0.000105682
8 *455:B2 *454:D 6.11405e-05
9 *555:A *454:D 1.32552e-05
10 *63:6 *454:D 3.18676e-05
*RES
1 *453:Y *454:D 33.1357 
*END

*D_NET *68 0.00059992
*CONN
*I *457:A2 I *D sky130_fd_sc_hd__a21oi_1
*I *454:X O *D sky130_fd_sc_hd__and4_1
*CAP
1 *457:A2 0.00020414
2 *454:X 0.00020414
3 *457:A2 *447:A1 3.69047e-06
4 *457:A2 *175:23 0.000149911
5 *457:A2 *176:38 0
6 *454:A *457:A2 3.80385e-05
*RES
1 *454:X *457:A2 30.9036 
*END

*D_NET *69 0.000935383
*CONN
*I *456:A2 I *D sky130_fd_sc_hd__a21boi_1
*I *455:X O *D sky130_fd_sc_hd__a221o_1
*CAP
1 *456:A2 0.000258375
2 *455:X 0.000258375
3 *456:A2 *451:A2 0
4 *456:A2 *451:B1 4.35048e-05
5 *456:A2 *485:A 0
6 *456:A2 *112:10 0.000141382
7 *456:A2 *112:12 0.000128154
8 *456:A2 *176:38 0
9 *456:A1 *456:A2 0
10 *60:14 *456:A2 0.000105593
*RES
1 *455:X *456:A2 33.7429 
*END

*D_NET *70 0.00031755
*CONN
*I *457:B1 I *D sky130_fd_sc_hd__a21oi_1